1



                                 *********************************************

                                    NUMERICAL ELECTROMAGNETICS CODE (NEC-2D)

                                 *********************************************




                                     - - - - COMMENTS - - - -


                          Antena dipolo com freqęncia de 600MHz                                      
                                                                                                     
                                                                                                     
                          forw: 90, 0 ; back:-90, 0                                                  
                                                                                                     




                                 - - - STRUCTURE SPECIFICATION - - -

                                     COORDINATES MUST BE INPUT IN
                                     METERS OR BE SCALED TO METERS
                                     BEFORE STRUCTURE INPUT IS ENDED


  WIRE                                                                               NO. OF    FIRST  LAST     TAG
  NO.        X1         Y1         Z1          X2         Y2         Z2      RADIUS   SEG.     SEG.   SEG.     NO.
     1    0.00000    0.00000   -0.12000     0.00000    0.00000    0.12000    0.00010      9        1     9       1

   TOTAL SEGMENTS USED=    9     NO. SEG. IN A SYMMETRIC CELL=    9     SYMMETRY FLAG=  0


         - MULTIPLE WIRE JUNCTIONS -
 JUNCTION    SEGMENTS  (- FOR END 1, + FOR END 2)
  NONE




                                 - - - - SEGMENTATION DATA - - - -

                                        COORDINATES IN METERS

                         I+ AND I- INDICATE THE SEGMENTS BEFORE AND AFTER I


  SEG.   COORDINATES OF SEG. CENTER     SEG.     ORIENTATION ANGLES    WIRE    CONNECTION DATA   TAG
  NO.       X         Y         Z       LENGTH     ALPHA     BETA      RADIUS    I-   I    I+    NO.
     1   0.00000   0.00000  -0.10667   0.02667   90.00000   0.00000   0.00010     0    1    2      1
     2   0.00000   0.00000  -0.08000   0.02667   90.00000   0.00000   0.00010     1    2    3      1
     3   0.00000   0.00000  -0.05333   0.02667   90.00000   0.00000   0.00010     2    3    4      1
     4   0.00000   0.00000  -0.02667   0.02667   90.00000   0.00000   0.00010     3    4    5      1
     5   0.00000   0.00000   0.00000   0.02667   90.00000   0.00000   0.00010     4    5    6      1
     6   0.00000   0.00000   0.02667   0.02667   90.00000   0.00000   0.00010     5    6    7      1
     7   0.00000   0.00000   0.05333   0.02667   90.00000   0.00000   0.00010     6    7    8      1
     8   0.00000   0.00000   0.08000   0.02667   90.00000   0.00000   0.00010     7    8    9      1
     9   0.00000   0.00000   0.10667   0.02667   90.00000   0.00000   0.00010     8    9    0      1






 ***** DATA CARD NO.  1   GN  -1     0     0     0  0.00000E+00  0.00000E+00  0.00000E+00  0.00000E+00  0.00000E+00  0.00000E+00
 ***** DATA CARD NO.  2   EK   0     0     0     0  0.00000E+00  0.00000E+00  0.00000E+00  0.00000E+00  0.00000E+00  0.00000E+00
 ***** DATA CARD NO.  3   EX   0     1     5     0  1.00000E+00  0.00000E+00  0.00000E+00  0.00000E+00  0.00000E+00  0.00000E+00
 ***** DATA CARD NO.  4   FR   0     0     0     0  6.00000E+02  0.00000E+00  0.00000E+00  0.00000E+00  0.00000E+00  0.00000E+00
 ***** DATA CARD NO.  5   XQ   0     0     0     0  0.00000E+00  0.00000E+00  0.00000E+00  0.00000E+00  0.00000E+00  0.00000E+00




                                 - - - - - - FREQUENCY - - - - - -

                                    FREQUENCY= 6.0000E+02 MHZ
                                    WAVELENGTH= 4.9967E-01 METERS




                    APPROXIMATE INTEGRATION EMPLOYED FOR SEGMENTS MORE THAN   1.000 WAVELENGTHS APART

                    THE EXTENDED THIN WIRE KERNEL WILL BE USED



                               - - - STRUCTURE IMPEDANCE LOADING - - -

                                   THIS STRUCTURE IS NOT LOADED



                                  - - - ANTENNA ENVIRONMENT - - -

                                            FREE SPACE



                                - - - MATRIX TIMING - - -

                        FILL=    0.000 SEC.,  FACTOR=    0.000 SEC.



                                          - - - ANTENNA INPUT PARAMETERS - - -

   TAG   SEG.    VOLTAGE (VOLTS)         CURRENT (AMPS)         IMPEDANCE (OHMS)        ADMITTANCE (MHOS)      POWER
   NO.   NO.    REAL        IMAG.       REAL        IMAG.       REAL        IMAG.       REAL        IMAG.     (WATTS)
     1     5 1.00000E+00 0.00000E+00 1.39823E-02 8.47389E-04 7.12575E+01-4.31853E+00 1.39823E-02 8.47389E-04 6.99113E-03



                             - - - CURRENTS AND LOCATION - - -

                                 DISTANCES IN WAVELENGTHS


  SEG.  TAG    COORD. OF SEG. CENTER     SEG.            - - - CURRENT (AMPS) - - -
  NO.   NO.     X        Y        Z      LENGTH     REAL        IMAG.       MAG.        PHASE
     1    1   0.0000   0.0000  -0.2135  0.05337   2.7805E-03 -4.2205E-05  2.7808E-03   -0.870
     2    1   0.0000   0.0000  -0.1601  0.05337   7.3969E-03 -7.8850E-06  7.3969E-03   -0.061
     3    1   0.0000   0.0000  -0.1067  0.05337   1.0940E-02  1.7346E-04  1.0941E-02    0.908
     4    1   0.0000   0.0000  -0.0534  0.05337   1.3203E-02  5.0021E-04  1.3213E-02    2.170
     5    1   0.0000   0.0000   0.0000  0.05337   1.3982E-02  8.4739E-04  1.4008E-02    3.468
     6    1   0.0000   0.0000   0.0534  0.05337   1.3203E-02  5.0021E-04  1.3213E-02    2.170
     7    1   0.0000   0.0000   0.1067  0.05337   1.0940E-02  1.7346E-04  1.0941E-02    0.908
     8    1   0.0000   0.0000   0.1601  0.05337   7.3969E-03 -7.8850E-06  7.3969E-03   -0.061
     9    1   0.0000   0.0000   0.2135  0.05337   2.7805E-03 -4.2205E-05  2.7808E-03   -0.870



                                        - - - POWER BUDGET - - -

                                           INPUT POWER   = 6.9911E-03 WATTS
                                           RADIATED POWER= 6.9911E-03 WATTS
                                           STRUCTURE LOSS= 0.0000E+00 WATTS
                                           NETWORK LOSS  = 0.0000E+00 WATTS
                                           EFFICIENCY    = 100.00 PERCENT






 ***** DATA CARD NO.  6   FR   0    25     0     0  4.80000E+02  1.00000E+01  0.00000E+00  0.00000E+00  0.00000E+00  0.00000E+00
 ***** DATA CARD NO.  7   RP   0    73     1  1000 -1.80000E+02  0.00000E+00  5.00000E+00  0.00000E+00  0.00000E+00  0.00000E+00




                                 - - - - - - FREQUENCY - - - - - -

                                    FREQUENCY= 4.8000E+02 MHZ
                                    WAVELENGTH= 6.2458E-01 METERS




                    APPROXIMATE INTEGRATION EMPLOYED FOR SEGMENTS MORE THAN   1.000 WAVELENGTHS APART

                    THE EXTENDED THIN WIRE KERNEL WILL BE USED



                               - - - STRUCTURE IMPEDANCE LOADING - - -

                                   THIS STRUCTURE IS NOT LOADED



                                  - - - ANTENNA ENVIRONMENT - - -

                                            FREE SPACE



                                - - - MATRIX TIMING - - -

                        FILL=    0.000 SEC.,  FACTOR=    0.000 SEC.



                                          - - - ANTENNA INPUT PARAMETERS - - -

   TAG   SEG.    VOLTAGE (VOLTS)         CURRENT (AMPS)         IMPEDANCE (OHMS)        ADMITTANCE (MHOS)      POWER
   NO.   NO.    REAL        IMAG.       REAL        IMAG.       REAL        IMAG.       REAL        IMAG.     (WATTS)
     1     5 1.00000E+00 0.00000E+00 5.70947E-04 3.75475E-03 3.95828E+01-2.60311E+02 5.70947E-04 3.75475E-03 2.85473E-04



                             - - - CURRENTS AND LOCATION - - -

                                 DISTANCES IN WAVELENGTHS


  SEG.  TAG    COORD. OF SEG. CENTER     SEG.            - - - CURRENT (AMPS) - - -
  NO.   NO.     X        Y        Z      LENGTH     REAL        IMAG.       MAG.        PHASE
     1    1   0.0000   0.0000  -0.1708  0.04270   1.2107E-04  6.2641E-04  6.3801E-04   79.061
     2    1   0.0000   0.0000  -0.1281  0.04270   3.1299E-04  1.6959E-03  1.7246E-03   79.544
     3    1   0.0000   0.0000  -0.0854  0.04270   4.5374E-04  2.5974E-03  2.6367E-03   80.091
     4    1   0.0000   0.0000  -0.0427  0.04270   5.4122E-04  3.3221E-03  3.3659E-03   80.747
     5    1   0.0000   0.0000   0.0000  0.04270   5.7095E-04  3.7547E-03  3.7979E-03   81.354
     6    1   0.0000   0.0000   0.0427  0.04270   5.4122E-04  3.3221E-03  3.3659E-03   80.747
     7    1   0.0000   0.0000   0.0854  0.04270   4.5374E-04  2.5974E-03  2.6367E-03   80.091
     8    1   0.0000   0.0000   0.1281  0.04270   3.1299E-04  1.6959E-03  1.7246E-03   79.544
     9    1   0.0000   0.0000   0.1708  0.04270   1.2107E-04  6.2641E-04  6.3801E-04   79.061



                                        - - - POWER BUDGET - - -

                                           INPUT POWER   = 2.8547E-04 WATTS
                                           RADIATED POWER= 2.8547E-04 WATTS
                                           STRUCTURE LOSS= 0.0000E+00 WATTS
                                           NETWORK LOSS  = 0.0000E+00 WATTS
                                           EFFICIENCY    = 100.00 PERCENT



                                                - - - RADIATION PATTERNS - - -

  - - ANGLES - -           - POWER GAINS -       - - - POLARIZATION - - -    - - - E(THETA) - - -    - - - E(PHI) - - -
  THETA     PHI        VERT.   HOR.    TOTAL      AXIAL     TILT   SENSE     MAGNITUDE    PHASE      MAGNITUDE    PHASE 
 DEGREES  DEGREES       DB      DB      DB        RATIO     DEG.              VOLTS/M    DEGREES      VOLTS/M    DEGREES
 -180.00     0.00    -999.99 -999.99 -999.99    0.00000     0.00            1.45954E-12   170.49    0.00000E+00     0.00
 -175.00     0.00     -20.41 -999.99  -20.41    0.00000     0.00  LINEAR    1.24763E-02    -9.51    0.00000E+00     0.00
 -170.00     0.00     -14.40 -999.99  -14.40    0.00000     0.00  LINEAR    2.49366E-02    -9.51    0.00000E+00     0.00
 -165.00     0.00     -10.89 -999.99  -10.89    0.00000     0.00  LINEAR    3.73602E-02    -9.51    0.00000E+00     0.00
 -160.00     0.00      -8.40 -999.99   -8.40    0.00000     0.00  LINEAR    4.97174E-02    -9.52    0.00000E+00     0.00
 -155.00     0.00      -6.49 -999.99   -6.49    0.00000     0.00  LINEAR    6.19655E-02    -9.53    0.00000E+00     0.00
 -150.00     0.00      -4.94 -999.99   -4.94    0.00000     0.00  LINEAR    7.40458E-02    -9.53    0.00000E+00     0.00
 -145.00     0.00      -3.66 -999.99   -3.66    0.00000     0.00  LINEAR    8.58810E-02    -9.54    0.00000E+00     0.00
 -140.00     0.00      -2.57 -999.99   -2.57    0.00000     0.00  LINEAR    9.73752E-02    -9.55    0.00000E+00     0.00
 -135.00     0.00      -1.63 -999.99   -1.63    0.00000     0.00  LINEAR    1.08414E-01    -9.56    0.00000E+00     0.00
 -130.00     0.00      -0.83 -999.99   -0.83    0.00000     0.00  LINEAR    1.18865E-01    -9.57    0.00000E+00     0.00
 -125.00     0.00      -0.15 -999.99   -0.15    0.00000     0.00  LINEAR    1.28587E-01    -9.58    0.00000E+00     0.00
 -120.00     0.00       0.43 -999.99    0.43    0.00000     0.00  LINEAR    1.37425E-01    -9.58    0.00000E+00     0.00
 -115.00     0.00       0.91 -999.99    0.91    0.00000     0.00  LINEAR    1.45229E-01    -9.59    0.00000E+00     0.00
 -110.00     0.00       1.29 -999.99    1.29    0.00000     0.00  LINEAR    1.51851E-01    -9.60    0.00000E+00     0.00
 -105.00     0.00       1.59 -999.99    1.59    0.00000     0.00  LINEAR    1.57157E-01    -9.60    0.00000E+00     0.00
 -100.00     0.00       1.80 -999.99    1.80    0.00000     0.00  LINEAR    1.61034E-01    -9.61    0.00000E+00     0.00
  -95.00     0.00       1.93 -999.99    1.93    0.00000     0.00  LINEAR    1.63396E-01    -9.61    0.00000E+00     0.00
  -90.00     0.00       1.97 -999.99    1.97    0.00000     0.00  LINEAR    1.64189E-01    -9.61    0.00000E+00     0.00
  -85.00     0.00       1.93 -999.99    1.93    0.00000     0.00  LINEAR    1.63396E-01    -9.61    0.00000E+00     0.00
  -80.00     0.00       1.80 -999.99    1.80    0.00000     0.00  LINEAR    1.61034E-01    -9.61    0.00000E+00     0.00
  -75.00     0.00       1.59 -999.99    1.59    0.00000     0.00  LINEAR    1.57157E-01    -9.60    0.00000E+00     0.00
  -70.00     0.00       1.29 -999.99    1.29    0.00000     0.00  LINEAR    1.51851E-01    -9.60    0.00000E+00     0.00
  -65.00     0.00       0.91 -999.99    0.91    0.00000     0.00  LINEAR    1.45229E-01    -9.59    0.00000E+00     0.00
  -60.00     0.00       0.43 -999.99    0.43    0.00000     0.00  LINEAR    1.37425E-01    -9.58    0.00000E+00     0.00
  -55.00     0.00      -0.15 -999.99   -0.15    0.00000     0.00  LINEAR    1.28587E-01    -9.58    0.00000E+00     0.00
  -50.00     0.00      -0.83 -999.99   -0.83    0.00000     0.00  LINEAR    1.18865E-01    -9.57    0.00000E+00     0.00
  -45.00     0.00      -1.63 -999.99   -1.63    0.00000     0.00  LINEAR    1.08414E-01    -9.56    0.00000E+00     0.00
  -40.00     0.00      -2.57 -999.99   -2.57    0.00000     0.00  LINEAR    9.73752E-02    -9.55    0.00000E+00     0.00
  -35.00     0.00      -3.66 -999.99   -3.66    0.00000     0.00  LINEAR    8.58810E-02    -9.54    0.00000E+00     0.00
  -30.00     0.00      -4.94 -999.99   -4.94    0.00000     0.00  LINEAR    7.40458E-02    -9.53    0.00000E+00     0.00
  -25.00     0.00      -6.49 -999.99   -6.49    0.00000     0.00  LINEAR    6.19655E-02    -9.53    0.00000E+00     0.00
  -20.00     0.00      -8.40 -999.99   -8.40    0.00000     0.00  LINEAR    4.97174E-02    -9.52    0.00000E+00     0.00
  -15.00     0.00     -10.89 -999.99  -10.89    0.00000     0.00  LINEAR    3.73602E-02    -9.51    0.00000E+00     0.00
  -10.00     0.00     -14.40 -999.99  -14.40    0.00000     0.00  LINEAR    2.49366E-02    -9.51    0.00000E+00     0.00
   -5.00     0.00     -20.41 -999.99  -20.41    0.00000     0.00  LINEAR    1.24763E-02    -9.51    0.00000E+00     0.00
    0.00     0.00    -999.99 -999.99 -999.99    0.00000     0.00            0.00000E+00     0.00    0.00000E+00     0.00
    5.00     0.00     -20.41 -999.99  -20.41    0.00000     0.00  LINEAR    1.24763E-02   170.49    0.00000E+00     0.00
   10.00     0.00     -14.40 -999.99  -14.40    0.00000     0.00  LINEAR    2.49366E-02   170.49    0.00000E+00     0.00
   15.00     0.00     -10.89 -999.99  -10.89    0.00000     0.00  LINEAR    3.73602E-02   170.49    0.00000E+00     0.00
   20.00     0.00      -8.40 -999.99   -8.40    0.00000     0.00  LINEAR    4.97174E-02   170.48    0.00000E+00     0.00
   25.00     0.00      -6.49 -999.99   -6.49    0.00000     0.00  LINEAR    6.19655E-02   170.47    0.00000E+00     0.00
   30.00     0.00      -4.94 -999.99   -4.94    0.00000     0.00  LINEAR    7.40458E-02   170.47    0.00000E+00     0.00
   35.00     0.00      -3.66 -999.99   -3.66    0.00000     0.00  LINEAR    8.58810E-02   170.46    0.00000E+00     0.00
   40.00     0.00      -2.57 -999.99   -2.57    0.00000     0.00  LINEAR    9.73752E-02   170.45    0.00000E+00     0.00
   45.00     0.00      -1.63 -999.99   -1.63    0.00000     0.00  LINEAR    1.08414E-01   170.44    0.00000E+00     0.00
   50.00     0.00      -0.83 -999.99   -0.83    0.00000     0.00  LINEAR    1.18865E-01   170.43    0.00000E+00     0.00
   55.00     0.00      -0.15 -999.99   -0.15    0.00000     0.00  LINEAR    1.28587E-01   170.42    0.00000E+00     0.00
   60.00     0.00       0.43 -999.99    0.43    0.00000     0.00  LINEAR    1.37425E-01   170.42    0.00000E+00     0.00
   65.00     0.00       0.91 -999.99    0.91    0.00000     0.00  LINEAR    1.45229E-01   170.41    0.00000E+00     0.00
   70.00     0.00       1.29 -999.99    1.29    0.00000     0.00  LINEAR    1.51851E-01   170.40    0.00000E+00     0.00
   75.00     0.00       1.59 -999.99    1.59    0.00000     0.00  LINEAR    1.57157E-01   170.40    0.00000E+00     0.00
   80.00     0.00       1.80 -999.99    1.80    0.00000     0.00  LINEAR    1.61034E-01   170.39    0.00000E+00     0.00
   85.00     0.00       1.93 -999.99    1.93    0.00000     0.00  LINEAR    1.63396E-01   170.39    0.00000E+00     0.00
   90.00     0.00       1.97 -999.99    1.97    0.00000     0.00  LINEAR    1.64189E-01   170.39    0.00000E+00     0.00
   95.00     0.00       1.93 -999.99    1.93    0.00000     0.00  LINEAR    1.63396E-01   170.39    0.00000E+00     0.00
  100.00     0.00       1.80 -999.99    1.80    0.00000     0.00  LINEAR    1.61034E-01   170.39    0.00000E+00     0.00
  105.00     0.00       1.59 -999.99    1.59    0.00000     0.00  LINEAR    1.57157E-01   170.40    0.00000E+00     0.00
  110.00     0.00       1.29 -999.99    1.29    0.00000     0.00  LINEAR    1.51851E-01   170.40    0.00000E+00     0.00
  115.00     0.00       0.91 -999.99    0.91    0.00000     0.00  LINEAR    1.45229E-01   170.41    0.00000E+00     0.00
  120.00     0.00       0.43 -999.99    0.43    0.00000     0.00  LINEAR    1.37425E-01   170.42    0.00000E+00     0.00
  125.00     0.00      -0.15 -999.99   -0.15    0.00000     0.00  LINEAR    1.28587E-01   170.42    0.00000E+00     0.00
  130.00     0.00      -0.83 -999.99   -0.83    0.00000     0.00  LINEAR    1.18865E-01   170.43    0.00000E+00     0.00
  135.00     0.00      -1.63 -999.99   -1.63    0.00000     0.00  LINEAR    1.08414E-01   170.44    0.00000E+00     0.00
  140.00     0.00      -2.57 -999.99   -2.57    0.00000     0.00  LINEAR    9.73752E-02   170.45    0.00000E+00     0.00
  145.00     0.00      -3.66 -999.99   -3.66    0.00000     0.00  LINEAR    8.58810E-02   170.46    0.00000E+00     0.00
  150.00     0.00      -4.94 -999.99   -4.94    0.00000     0.00  LINEAR    7.40458E-02   170.47    0.00000E+00     0.00
  155.00     0.00      -6.49 -999.99   -6.49    0.00000     0.00  LINEAR    6.19655E-02   170.47    0.00000E+00     0.00
  160.00     0.00      -8.40 -999.99   -8.40    0.00000     0.00  LINEAR    4.97174E-02   170.48    0.00000E+00     0.00
  165.00     0.00     -10.89 -999.99  -10.89    0.00000     0.00  LINEAR    3.73602E-02   170.49    0.00000E+00     0.00
  170.00     0.00     -14.40 -999.99  -14.40    0.00000     0.00  LINEAR    2.49366E-02   170.49    0.00000E+00     0.00
  175.00     0.00     -20.41 -999.99  -20.41    0.00000     0.00  LINEAR    1.24763E-02   170.49    0.00000E+00     0.00
  180.00     0.00    -999.99 -999.99 -999.99    0.00000     0.00            1.45954E-12    -9.51    0.00000E+00     0.00




                                 - - - - - - FREQUENCY - - - - - -

                                    FREQUENCY= 4.9000E+02 MHZ
                                    WAVELENGTH= 6.1184E-01 METERS




                    APPROXIMATE INTEGRATION EMPLOYED FOR SEGMENTS MORE THAN   1.000 WAVELENGTHS APART

                    THE EXTENDED THIN WIRE KERNEL WILL BE USED



                               - - - STRUCTURE IMPEDANCE LOADING - - -

                                   THIS STRUCTURE IS NOT LOADED



                                  - - - ANTENNA ENVIRONMENT - - -

                                            FREE SPACE



                                - - - MATRIX TIMING - - -

                        FILL=    0.000 SEC.,  FACTOR=    0.000 SEC.



                                          - - - ANTENNA INPUT PARAMETERS - - -

   TAG   SEG.    VOLTAGE (VOLTS)         CURRENT (AMPS)         IMPEDANCE (OHMS)        ADMITTANCE (MHOS)      POWER
   NO.   NO.    REAL        IMAG.       REAL        IMAG.       REAL        IMAG.       REAL        IMAG.     (WATTS)
     1     5 1.00000E+00 0.00000E+00 7.17836E-04 4.08796E-03 4.16699E+01-2.37304E+02 7.17836E-04 4.08796E-03 3.58918E-04



                             - - - CURRENTS AND LOCATION - - -

                                 DISTANCES IN WAVELENGTHS


  SEG.  TAG    COORD. OF SEG. CENTER     SEG.            - - - CURRENT (AMPS) - - -
  NO.   NO.     X        Y        Z      LENGTH     REAL        IMAG.       MAG.        PHASE
     1    1   0.0000   0.0000  -0.1743  0.04358   1.5148E-04  6.8946E-04  7.0591E-04   77.609
     2    1   0.0000   0.0000  -0.1308  0.04358   3.9246E-04  1.8649E-03  1.9057E-03   78.116
     3    1   0.0000   0.0000  -0.0872  0.04358   5.6980E-04  2.8499E-03  2.9063E-03   78.694
     4    1   0.0000   0.0000  -0.0436  0.04358   6.8026E-04  3.6316E-03  3.6948E-03   79.391
     5    1   0.0000   0.0000   0.0000  0.04358   7.1784E-04  4.0880E-03  4.1505E-03   80.041
     6    1   0.0000   0.0000   0.0436  0.04358   6.8026E-04  3.6316E-03  3.6948E-03   79.391
     7    1   0.0000   0.0000   0.0872  0.04358   5.6980E-04  2.8499E-03  2.9063E-03   78.694
     8    1   0.0000   0.0000   0.1308  0.04358   3.9246E-04  1.8649E-03  1.9057E-03   78.116
     9    1   0.0000   0.0000   0.1743  0.04358   1.5148E-04  6.8946E-04  7.0591E-04   77.609



                                        - - - POWER BUDGET - - -

                                           INPUT POWER   = 3.5892E-04 WATTS
                                           RADIATED POWER= 3.5892E-04 WATTS
                                           STRUCTURE LOSS= 0.0000E+00 WATTS
                                           NETWORK LOSS  = 0.0000E+00 WATTS
                                           EFFICIENCY    = 100.00 PERCENT



                                                - - - RADIATION PATTERNS - - -

  - - ANGLES - -           - POWER GAINS -       - - - POLARIZATION - - -    - - - E(THETA) - - -    - - - E(PHI) - - -
  THETA     PHI        VERT.   HOR.    TOTAL      AXIAL     TILT   SENSE     MAGNITUDE    PHASE      MAGNITUDE    PHASE 
 DEGREES  DEGREES       DB      DB      DB        RATIO     DEG.              VOLTS/M    DEGREES      VOLTS/M    DEGREES
 -180.00     0.00    -999.99 -999.99 -999.99    0.00000     0.00            1.62787E-12   169.13    0.00000E+00     0.00
 -175.00     0.00     -20.46 -999.99  -20.46    0.00000     0.00  LINEAR    1.39159E-02   -10.87    0.00000E+00     0.00
 -170.00     0.00     -14.44 -999.99  -14.44    0.00000     0.00  LINEAR    2.78182E-02   -10.88    0.00000E+00     0.00
 -165.00     0.00     -10.93 -999.99  -10.93    0.00000     0.00  LINEAR    4.16878E-02   -10.88    0.00000E+00     0.00
 -160.00     0.00      -8.44 -999.99   -8.44    0.00000     0.00  LINEAR    5.54951E-02   -10.89    0.00000E+00     0.00
 -155.00     0.00      -6.53 -999.99   -6.53    0.00000     0.00  LINEAR    6.91952E-02   -10.90    0.00000E+00     0.00
 -150.00     0.00      -4.98 -999.99   -4.98    0.00000     0.00  LINEAR    8.27241E-02   -10.90    0.00000E+00     0.00
 -145.00     0.00      -3.68 -999.99   -3.68    0.00000     0.00  LINEAR    9.59967E-02   -10.91    0.00000E+00     0.00
 -140.00     0.00      -2.59 -999.99   -2.59    0.00000     0.00  LINEAR    1.08905E-01   -10.92    0.00000E+00     0.00
 -135.00     0.00      -1.65 -999.99   -1.65    0.00000     0.00  LINEAR    1.21319E-01   -10.93    0.00000E+00     0.00
 -130.00     0.00      -0.85 -999.99   -0.85    0.00000     0.00  LINEAR    1.33090E-01   -10.94    0.00000E+00     0.00
 -125.00     0.00      -0.16 -999.99   -0.16    0.00000     0.00  LINEAR    1.44053E-01   -10.95    0.00000E+00     0.00
 -120.00     0.00       0.42 -999.99    0.42    0.00000     0.00  LINEAR    1.54033E-01   -10.96    0.00000E+00     0.00
 -115.00     0.00       0.91 -999.99    0.91    0.00000     0.00  LINEAR    1.62854E-01   -10.97    0.00000E+00     0.00
 -110.00     0.00       1.30 -999.99    1.30    0.00000     0.00  LINEAR    1.70345E-01   -10.97    0.00000E+00     0.00
 -105.00     0.00       1.60 -999.99    1.60    0.00000     0.00  LINEAR    1.76353E-01   -10.98    0.00000E+00     0.00
 -100.00     0.00       1.81 -999.99    1.81    0.00000     0.00  LINEAR    1.80745E-01   -10.98    0.00000E+00     0.00
  -95.00     0.00       1.94 -999.99    1.94    0.00000     0.00  LINEAR    1.83423E-01   -10.99    0.00000E+00     0.00
  -90.00     0.00       1.98 -999.99    1.98    0.00000     0.00  LINEAR    1.84322E-01   -10.99    0.00000E+00     0.00
  -85.00     0.00       1.94 -999.99    1.94    0.00000     0.00  LINEAR    1.83423E-01   -10.99    0.00000E+00     0.00
  -80.00     0.00       1.81 -999.99    1.81    0.00000     0.00  LINEAR    1.80745E-01   -10.98    0.00000E+00     0.00
  -75.00     0.00       1.60 -999.99    1.60    0.00000     0.00  LINEAR    1.76353E-01   -10.98    0.00000E+00     0.00
  -70.00     0.00       1.30 -999.99    1.30    0.00000     0.00  LINEAR    1.70345E-01   -10.97    0.00000E+00     0.00
  -65.00     0.00       0.91 -999.99    0.91    0.00000     0.00  LINEAR    1.62854E-01   -10.97    0.00000E+00     0.00
  -60.00     0.00       0.42 -999.99    0.42    0.00000     0.00  LINEAR    1.54033E-01   -10.96    0.00000E+00     0.00
  -55.00     0.00      -0.16 -999.99   -0.16    0.00000     0.00  LINEAR    1.44053E-01   -10.95    0.00000E+00     0.00
  -50.00     0.00      -0.85 -999.99   -0.85    0.00000     0.00  LINEAR    1.33090E-01   -10.94    0.00000E+00     0.00
  -45.00     0.00      -1.65 -999.99   -1.65    0.00000     0.00  LINEAR    1.21319E-01   -10.93    0.00000E+00     0.00
  -40.00     0.00      -2.59 -999.99   -2.59    0.00000     0.00  LINEAR    1.08905E-01   -10.92    0.00000E+00     0.00
  -35.00     0.00      -3.68 -999.99   -3.68    0.00000     0.00  LINEAR    9.59967E-02   -10.91    0.00000E+00     0.00
  -30.00     0.00      -4.98 -999.99   -4.98    0.00000     0.00  LINEAR    8.27241E-02   -10.90    0.00000E+00     0.00
  -25.00     0.00      -6.53 -999.99   -6.53    0.00000     0.00  LINEAR    6.91952E-02   -10.90    0.00000E+00     0.00
  -20.00     0.00      -8.44 -999.99   -8.44    0.00000     0.00  LINEAR    5.54951E-02   -10.89    0.00000E+00     0.00
  -15.00     0.00     -10.93 -999.99  -10.93    0.00000     0.00  LINEAR    4.16878E-02   -10.88    0.00000E+00     0.00
  -10.00     0.00     -14.44 -999.99  -14.44    0.00000     0.00  LINEAR    2.78182E-02   -10.88    0.00000E+00     0.00
   -5.00     0.00     -20.46 -999.99  -20.46    0.00000     0.00  LINEAR    1.39159E-02   -10.87    0.00000E+00     0.00
    0.00     0.00    -999.99 -999.99 -999.99    0.00000     0.00            0.00000E+00     0.00    0.00000E+00     0.00
    5.00     0.00     -20.46 -999.99  -20.46    0.00000     0.00  LINEAR    1.39159E-02   169.13    0.00000E+00     0.00
   10.00     0.00     -14.44 -999.99  -14.44    0.00000     0.00  LINEAR    2.78182E-02   169.12    0.00000E+00     0.00
   15.00     0.00     -10.93 -999.99  -10.93    0.00000     0.00  LINEAR    4.16878E-02   169.12    0.00000E+00     0.00
   20.00     0.00      -8.44 -999.99   -8.44    0.00000     0.00  LINEAR    5.54951E-02   169.11    0.00000E+00     0.00
   25.00     0.00      -6.53 -999.99   -6.53    0.00000     0.00  LINEAR    6.91952E-02   169.10    0.00000E+00     0.00
   30.00     0.00      -4.98 -999.99   -4.98    0.00000     0.00  LINEAR    8.27241E-02   169.10    0.00000E+00     0.00
   35.00     0.00      -3.68 -999.99   -3.68    0.00000     0.00  LINEAR    9.59967E-02   169.09    0.00000E+00     0.00
   40.00     0.00      -2.59 -999.99   -2.59    0.00000     0.00  LINEAR    1.08905E-01   169.08    0.00000E+00     0.00
   45.00     0.00      -1.65 -999.99   -1.65    0.00000     0.00  LINEAR    1.21319E-01   169.07    0.00000E+00     0.00
   50.00     0.00      -0.85 -999.99   -0.85    0.00000     0.00  LINEAR    1.33090E-01   169.06    0.00000E+00     0.00
   55.00     0.00      -0.16 -999.99   -0.16    0.00000     0.00  LINEAR    1.44053E-01   169.05    0.00000E+00     0.00
   60.00     0.00       0.42 -999.99    0.42    0.00000     0.00  LINEAR    1.54033E-01   169.04    0.00000E+00     0.00
   65.00     0.00       0.91 -999.99    0.91    0.00000     0.00  LINEAR    1.62854E-01   169.03    0.00000E+00     0.00
   70.00     0.00       1.30 -999.99    1.30    0.00000     0.00  LINEAR    1.70345E-01   169.03    0.00000E+00     0.00
   75.00     0.00       1.60 -999.99    1.60    0.00000     0.00  LINEAR    1.76353E-01   169.02    0.00000E+00     0.00
   80.00     0.00       1.81 -999.99    1.81    0.00000     0.00  LINEAR    1.80745E-01   169.02    0.00000E+00     0.00
   85.00     0.00       1.94 -999.99    1.94    0.00000     0.00  LINEAR    1.83423E-01   169.01    0.00000E+00     0.00
   90.00     0.00       1.98 -999.99    1.98    0.00000     0.00  LINEAR    1.84322E-01   169.01    0.00000E+00     0.00
   95.00     0.00       1.94 -999.99    1.94    0.00000     0.00  LINEAR    1.83423E-01   169.01    0.00000E+00     0.00
  100.00     0.00       1.81 -999.99    1.81    0.00000     0.00  LINEAR    1.80745E-01   169.02    0.00000E+00     0.00
  105.00     0.00       1.60 -999.99    1.60    0.00000     0.00  LINEAR    1.76353E-01   169.02    0.00000E+00     0.00
  110.00     0.00       1.30 -999.99    1.30    0.00000     0.00  LINEAR    1.70345E-01   169.03    0.00000E+00     0.00
  115.00     0.00       0.91 -999.99    0.91    0.00000     0.00  LINEAR    1.62854E-01   169.03    0.00000E+00     0.00
  120.00     0.00       0.42 -999.99    0.42    0.00000     0.00  LINEAR    1.54033E-01   169.04    0.00000E+00     0.00
  125.00     0.00      -0.16 -999.99   -0.16    0.00000     0.00  LINEAR    1.44053E-01   169.05    0.00000E+00     0.00
  130.00     0.00      -0.85 -999.99   -0.85    0.00000     0.00  LINEAR    1.33090E-01   169.06    0.00000E+00     0.00
  135.00     0.00      -1.65 -999.99   -1.65    0.00000     0.00  LINEAR    1.21319E-01   169.07    0.00000E+00     0.00
  140.00     0.00      -2.59 -999.99   -2.59    0.00000     0.00  LINEAR    1.08905E-01   169.08    0.00000E+00     0.00
  145.00     0.00      -3.68 -999.99   -3.68    0.00000     0.00  LINEAR    9.59967E-02   169.09    0.00000E+00     0.00
  150.00     0.00      -4.98 -999.99   -4.98    0.00000     0.00  LINEAR    8.27241E-02   169.10    0.00000E+00     0.00
  155.00     0.00      -6.53 -999.99   -6.53    0.00000     0.00  LINEAR    6.91952E-02   169.10    0.00000E+00     0.00
  160.00     0.00      -8.44 -999.99   -8.44    0.00000     0.00  LINEAR    5.54951E-02   169.11    0.00000E+00     0.00
  165.00     0.00     -10.93 -999.99  -10.93    0.00000     0.00  LINEAR    4.16878E-02   169.12    0.00000E+00     0.00
  170.00     0.00     -14.44 -999.99  -14.44    0.00000     0.00  LINEAR    2.78182E-02   169.12    0.00000E+00     0.00
  175.00     0.00     -20.46 -999.99  -20.46    0.00000     0.00  LINEAR    1.39159E-02   169.13    0.00000E+00     0.00
  180.00     0.00    -999.99 -999.99 -999.99    0.00000     0.00            1.62787E-12   -10.87    0.00000E+00     0.00




                                 - - - - - - FREQUENCY - - - - - -

                                    FREQUENCY= 5.0000E+02 MHZ
                                    WAVELENGTH= 5.9960E-01 METERS




                    APPROXIMATE INTEGRATION EMPLOYED FOR SEGMENTS MORE THAN   1.000 WAVELENGTHS APART

                    THE EXTENDED THIN WIRE KERNEL WILL BE USED



                               - - - STRUCTURE IMPEDANCE LOADING - - -

                                   THIS STRUCTURE IS NOT LOADED



                                  - - - ANTENNA ENVIRONMENT - - -

                                            FREE SPACE



                                - - - MATRIX TIMING - - -

                        FILL=    0.000 SEC.,  FACTOR=    0.000 SEC.



                                          - - - ANTENNA INPUT PARAMETERS - - -

   TAG   SEG.    VOLTAGE (VOLTS)         CURRENT (AMPS)         IMPEDANCE (OHMS)        ADMITTANCE (MHOS)      POWER
   NO.   NO.    REAL        IMAG.       REAL        IMAG.       REAL        IMAG.       REAL        IMAG.     (WATTS)
     1     5 1.00000E+00 0.00000E+00 9.12986E-04 4.47108E-03 4.38428E+01-2.14707E+02 9.12986E-04 4.47108E-03 4.56493E-04



                             - - - CURRENTS AND LOCATION - - -

                                 DISTANCES IN WAVELENGTHS


  SEG.  TAG    COORD. OF SEG. CENTER     SEG.            - - - CURRENT (AMPS) - - -
  NO.   NO.     X        Y        Z      LENGTH     REAL        IMAG.       MAG.        PHASE
     1    1   0.0000   0.0000  -0.1779  0.04447   1.9171E-04  7.6225E-04  7.8599E-04   75.882
     2    1   0.0000   0.0000  -0.1334  0.04447   4.9778E-04  2.0599E-03  2.1192E-03   76.415
     3    1   0.0000   0.0000  -0.0889  0.04447   7.2383E-04  3.1413E-03  3.2236E-03   77.024
     4    1   0.0000   0.0000  -0.0445  0.04447   8.6494E-04  3.9883E-03  4.0810E-03   77.764
     5    1   0.0000   0.0000   0.0000  0.04447   9.1299E-04  4.4711E-03  4.5633E-03   78.459
     6    1   0.0000   0.0000   0.0445  0.04447   8.6494E-04  3.9883E-03  4.0810E-03   77.764
     7    1   0.0000   0.0000   0.0889  0.04447   7.2383E-04  3.1413E-03  3.2236E-03   77.024
     8    1   0.0000   0.0000   0.1334  0.04447   4.9778E-04  2.0599E-03  2.1192E-03   76.415
     9    1   0.0000   0.0000   0.1779  0.04447   1.9171E-04  7.6225E-04  7.8599E-04   75.882



                                        - - - POWER BUDGET - - -

                                           INPUT POWER   = 4.5649E-04 WATTS
                                           RADIATED POWER= 4.5649E-04 WATTS
                                           STRUCTURE LOSS= 0.0000E+00 WATTS
                                           NETWORK LOSS  = 0.0000E+00 WATTS
                                           EFFICIENCY    = 100.00 PERCENT



                                                - - - RADIATION PATTERNS - - -

  - - ANGLES - -           - POWER GAINS -       - - - POLARIZATION - - -    - - - E(THETA) - - -    - - - E(PHI) - - -
  THETA     PHI        VERT.   HOR.    TOTAL      AXIAL     TILT   SENSE     MAGNITUDE    PHASE      MAGNITUDE    PHASE 
 DEGREES  DEGREES       DB      DB      DB        RATIO     DEG.              VOLTS/M    DEGREES      VOLTS/M    DEGREES
 -180.00     0.00    -999.99 -999.99 -999.99    0.00000     0.00            1.82581E-12   167.49    0.00000E+00     0.00
 -175.00     0.00     -20.51 -999.99  -20.51    0.00000     0.00  LINEAR    1.56088E-02   -12.51    0.00000E+00     0.00
 -170.00     0.00     -14.49 -999.99  -14.49    0.00000     0.00  LINEAR    3.12073E-02   -12.52    0.00000E+00     0.00
 -165.00     0.00     -10.97 -999.99  -10.97    0.00000     0.00  LINEAR    4.67787E-02   -12.52    0.00000E+00     0.00
 -160.00     0.00      -8.48 -999.99   -8.48    0.00000     0.00  LINEAR    6.22938E-02   -12.53    0.00000E+00     0.00
 -155.00     0.00      -6.56 -999.99   -6.56    0.00000     0.00  LINEAR    7.77053E-02   -12.54    0.00000E+00     0.00
 -150.00     0.00      -5.01 -999.99   -5.01    0.00000     0.00  LINEAR    9.29437E-02   -12.55    0.00000E+00     0.00
 -145.00     0.00      -3.71 -999.99   -3.71    0.00000     0.00  LINEAR    1.07914E-01   -12.56    0.00000E+00     0.00
 -140.00     0.00      -2.61 -999.99   -2.61    0.00000     0.00  LINEAR    1.22495E-01   -12.57    0.00000E+00     0.00
 -135.00     0.00      -1.67 -999.99   -1.67    0.00000     0.00  LINEAR    1.36538E-01   -12.58    0.00000E+00     0.00
 -130.00     0.00      -0.86 -999.99   -0.86    0.00000     0.00  LINEAR    1.49873E-01   -12.59    0.00000E+00     0.00
 -125.00     0.00      -0.17 -999.99   -0.17    0.00000     0.00  LINEAR    1.62308E-01   -12.60    0.00000E+00     0.00
 -120.00     0.00       0.42 -999.99    0.42    0.00000     0.00  LINEAR    1.73643E-01   -12.61    0.00000E+00     0.00
 -115.00     0.00       0.91 -999.99    0.91    0.00000     0.00  LINEAR    1.83673E-01   -12.62    0.00000E+00     0.00
 -110.00     0.00       1.30 -999.99    1.30    0.00000     0.00  LINEAR    1.92200E-01   -12.62    0.00000E+00     0.00
 -105.00     0.00       1.61 -999.99    1.61    0.00000     0.00  LINEAR    1.99043E-01   -12.63    0.00000E+00     0.00
 -100.00     0.00       1.82 -999.99    1.82    0.00000     0.00  LINEAR    2.04049E-01   -12.63    0.00000E+00     0.00
  -95.00     0.00       1.95 -999.99    1.95    0.00000     0.00  LINEAR    2.07101E-01   -12.64    0.00000E+00     0.00
  -90.00     0.00       1.99 -999.99    1.99    0.00000     0.00  LINEAR    2.08127E-01   -12.64    0.00000E+00     0.00
  -85.00     0.00       1.95 -999.99    1.95    0.00000     0.00  LINEAR    2.07101E-01   -12.64    0.00000E+00     0.00
  -80.00     0.00       1.82 -999.99    1.82    0.00000     0.00  LINEAR    2.04049E-01   -12.63    0.00000E+00     0.00
  -75.00     0.00       1.61 -999.99    1.61    0.00000     0.00  LINEAR    1.99043E-01   -12.63    0.00000E+00     0.00
  -70.00     0.00       1.30 -999.99    1.30    0.00000     0.00  LINEAR    1.92200E-01   -12.62    0.00000E+00     0.00
  -65.00     0.00       0.91 -999.99    0.91    0.00000     0.00  LINEAR    1.83673E-01   -12.62    0.00000E+00     0.00
  -60.00     0.00       0.42 -999.99    0.42    0.00000     0.00  LINEAR    1.73643E-01   -12.61    0.00000E+00     0.00
  -55.00     0.00      -0.17 -999.99   -0.17    0.00000     0.00  LINEAR    1.62308E-01   -12.60    0.00000E+00     0.00
  -50.00     0.00      -0.86 -999.99   -0.86    0.00000     0.00  LINEAR    1.49873E-01   -12.59    0.00000E+00     0.00
  -45.00     0.00      -1.67 -999.99   -1.67    0.00000     0.00  LINEAR    1.36538E-01   -12.58    0.00000E+00     0.00
  -40.00     0.00      -2.61 -999.99   -2.61    0.00000     0.00  LINEAR    1.22495E-01   -12.57    0.00000E+00     0.00
  -35.00     0.00      -3.71 -999.99   -3.71    0.00000     0.00  LINEAR    1.07914E-01   -12.56    0.00000E+00     0.00
  -30.00     0.00      -5.01 -999.99   -5.01    0.00000     0.00  LINEAR    9.29437E-02   -12.55    0.00000E+00     0.00
  -25.00     0.00      -6.56 -999.99   -6.56    0.00000     0.00  LINEAR    7.77053E-02   -12.54    0.00000E+00     0.00
  -20.00     0.00      -8.48 -999.99   -8.48    0.00000     0.00  LINEAR    6.22938E-02   -12.53    0.00000E+00     0.00
  -15.00     0.00     -10.97 -999.99  -10.97    0.00000     0.00  LINEAR    4.67787E-02   -12.52    0.00000E+00     0.00
  -10.00     0.00     -14.49 -999.99  -14.49    0.00000     0.00  LINEAR    3.12073E-02   -12.52    0.00000E+00     0.00
   -5.00     0.00     -20.51 -999.99  -20.51    0.00000     0.00  LINEAR    1.56088E-02   -12.51    0.00000E+00     0.00
    0.00     0.00    -999.99 -999.99 -999.99    0.00000     0.00            0.00000E+00     0.00    0.00000E+00     0.00
    5.00     0.00     -20.51 -999.99  -20.51    0.00000     0.00  LINEAR    1.56088E-02   167.49    0.00000E+00     0.00
   10.00     0.00     -14.49 -999.99  -14.49    0.00000     0.00  LINEAR    3.12073E-02   167.48    0.00000E+00     0.00
   15.00     0.00     -10.97 -999.99  -10.97    0.00000     0.00  LINEAR    4.67787E-02   167.48    0.00000E+00     0.00
   20.00     0.00      -8.48 -999.99   -8.48    0.00000     0.00  LINEAR    6.22938E-02   167.47    0.00000E+00     0.00
   25.00     0.00      -6.56 -999.99   -6.56    0.00000     0.00  LINEAR    7.77053E-02   167.46    0.00000E+00     0.00
   30.00     0.00      -5.01 -999.99   -5.01    0.00000     0.00  LINEAR    9.29437E-02   167.45    0.00000E+00     0.00
   35.00     0.00      -3.71 -999.99   -3.71    0.00000     0.00  LINEAR    1.07914E-01   167.44    0.00000E+00     0.00
   40.00     0.00      -2.61 -999.99   -2.61    0.00000     0.00  LINEAR    1.22495E-01   167.43    0.00000E+00     0.00
   45.00     0.00      -1.67 -999.99   -1.67    0.00000     0.00  LINEAR    1.36538E-01   167.42    0.00000E+00     0.00
   50.00     0.00      -0.86 -999.99   -0.86    0.00000     0.00  LINEAR    1.49873E-01   167.41    0.00000E+00     0.00
   55.00     0.00      -0.17 -999.99   -0.17    0.00000     0.00  LINEAR    1.62308E-01   167.40    0.00000E+00     0.00
   60.00     0.00       0.42 -999.99    0.42    0.00000     0.00  LINEAR    1.73643E-01   167.39    0.00000E+00     0.00
   65.00     0.00       0.91 -999.99    0.91    0.00000     0.00  LINEAR    1.83673E-01   167.38    0.00000E+00     0.00
   70.00     0.00       1.30 -999.99    1.30    0.00000     0.00  LINEAR    1.92200E-01   167.38    0.00000E+00     0.00
   75.00     0.00       1.61 -999.99    1.61    0.00000     0.00  LINEAR    1.99043E-01   167.37    0.00000E+00     0.00
   80.00     0.00       1.82 -999.99    1.82    0.00000     0.00  LINEAR    2.04049E-01   167.37    0.00000E+00     0.00
   85.00     0.00       1.95 -999.99    1.95    0.00000     0.00  LINEAR    2.07101E-01   167.36    0.00000E+00     0.00
   90.00     0.00       1.99 -999.99    1.99    0.00000     0.00  LINEAR    2.08127E-01   167.36    0.00000E+00     0.00
   95.00     0.00       1.95 -999.99    1.95    0.00000     0.00  LINEAR    2.07101E-01   167.36    0.00000E+00     0.00
  100.00     0.00       1.82 -999.99    1.82    0.00000     0.00  LINEAR    2.04049E-01   167.37    0.00000E+00     0.00
  105.00     0.00       1.61 -999.99    1.61    0.00000     0.00  LINEAR    1.99043E-01   167.37    0.00000E+00     0.00
  110.00     0.00       1.30 -999.99    1.30    0.00000     0.00  LINEAR    1.92200E-01   167.38    0.00000E+00     0.00
  115.00     0.00       0.91 -999.99    0.91    0.00000     0.00  LINEAR    1.83673E-01   167.38    0.00000E+00     0.00
  120.00     0.00       0.42 -999.99    0.42    0.00000     0.00  LINEAR    1.73643E-01   167.39    0.00000E+00     0.00
  125.00     0.00      -0.17 -999.99   -0.17    0.00000     0.00  LINEAR    1.62308E-01   167.40    0.00000E+00     0.00
  130.00     0.00      -0.86 -999.99   -0.86    0.00000     0.00  LINEAR    1.49873E-01   167.41    0.00000E+00     0.00
  135.00     0.00      -1.67 -999.99   -1.67    0.00000     0.00  LINEAR    1.36538E-01   167.42    0.00000E+00     0.00
  140.00     0.00      -2.61 -999.99   -2.61    0.00000     0.00  LINEAR    1.22495E-01   167.43    0.00000E+00     0.00
  145.00     0.00      -3.71 -999.99   -3.71    0.00000     0.00  LINEAR    1.07914E-01   167.44    0.00000E+00     0.00
  150.00     0.00      -5.01 -999.99   -5.01    0.00000     0.00  LINEAR    9.29437E-02   167.45    0.00000E+00     0.00
  155.00     0.00      -6.56 -999.99   -6.56    0.00000     0.00  LINEAR    7.77053E-02   167.46    0.00000E+00     0.00
  160.00     0.00      -8.48 -999.99   -8.48    0.00000     0.00  LINEAR    6.22938E-02   167.47    0.00000E+00     0.00
  165.00     0.00     -10.97 -999.99  -10.97    0.00000     0.00  LINEAR    4.67787E-02   167.48    0.00000E+00     0.00
  170.00     0.00     -14.49 -999.99  -14.49    0.00000     0.00  LINEAR    3.12073E-02   167.48    0.00000E+00     0.00
  175.00     0.00     -20.51 -999.99  -20.51    0.00000     0.00  LINEAR    1.56088E-02   167.49    0.00000E+00     0.00
  180.00     0.00    -999.99 -999.99 -999.99    0.00000     0.00            1.82581E-12   -12.51    0.00000E+00     0.00




                                 - - - - - - FREQUENCY - - - - - -

                                    FREQUENCY= 5.1000E+02 MHZ
                                    WAVELENGTH= 5.8784E-01 METERS




                    APPROXIMATE INTEGRATION EMPLOYED FOR SEGMENTS MORE THAN   1.000 WAVELENGTHS APART

                    THE EXTENDED THIN WIRE KERNEL WILL BE USED



                               - - - STRUCTURE IMPEDANCE LOADING - - -

                                   THIS STRUCTURE IS NOT LOADED



                                  - - - ANTENNA ENVIRONMENT - - -

                                            FREE SPACE



                                - - - MATRIX TIMING - - -

                        FILL=    0.000 SEC.,  FACTOR=    0.000 SEC.



                                          - - - ANTENNA INPUT PARAMETERS - - -

   TAG   SEG.    VOLTAGE (VOLTS)         CURRENT (AMPS)         IMPEDANCE (OHMS)        ADMITTANCE (MHOS)      POWER
   NO.   NO.    REAL        IMAG.       REAL        IMAG.       REAL        IMAG.       REAL        IMAG.     (WATTS)
     1     5 1.00000E+00 0.00000E+00 1.17687E-03 4.91332E-03 4.61053E+01-1.92485E+02 1.17687E-03 4.91332E-03 5.88435E-04



                             - - - CURRENTS AND LOCATION - - -

                                 DISTANCES IN WAVELENGTHS


  SEG.  TAG    COORD. OF SEG. CENTER     SEG.            - - - CURRENT (AMPS) - - -
  NO.   NO.     X        Y        Z      LENGTH     REAL        IMAG.       MAG.        PHASE
     1    1   0.0000   0.0000  -0.1815  0.04536   2.4588E-04  8.4652E-04  8.8151E-04   73.803
     2    1   0.0000   0.0000  -0.1361  0.04536   6.3987E-04  2.2858E-03  2.3737E-03   74.362
     3    1   0.0000   0.0000  -0.0907  0.04536   9.3189E-04  3.4787E-03  3.6013E-03   75.003
     4    1   0.0000   0.0000  -0.0454  0.04536   1.1146E-03  4.4007E-03  4.5396E-03   75.787
     5    1   0.0000   0.0000   0.0000  0.04536   1.1769E-03  4.9133E-03  5.0523E-03   76.530
     6    1   0.0000   0.0000   0.0454  0.04536   1.1146E-03  4.4007E-03  4.5396E-03   75.787
     7    1   0.0000   0.0000   0.0907  0.04536   9.3189E-04  3.4787E-03  3.6013E-03   75.003
     8    1   0.0000   0.0000   0.1361  0.04536   6.3987E-04  2.2858E-03  2.3737E-03   74.362
     9    1   0.0000   0.0000   0.1815  0.04536   2.4588E-04  8.4652E-04  8.8151E-04   73.803



                                        - - - POWER BUDGET - - -

                                           INPUT POWER   = 5.8843E-04 WATTS
                                           RADIATED POWER= 5.8843E-04 WATTS
                                           STRUCTURE LOSS= 0.0000E+00 WATTS
                                           NETWORK LOSS  = 0.0000E+00 WATTS
                                           EFFICIENCY    = 100.00 PERCENT



                                                - - - RADIATION PATTERNS - - -

  - - ANGLES - -           - POWER GAINS -       - - - POLARIZATION - - -    - - - E(THETA) - - -    - - - E(PHI) - - -
  THETA     PHI        VERT.   HOR.    TOTAL      AXIAL     TILT   SENSE     MAGNITUDE    PHASE      MAGNITUDE    PHASE 
 DEGREES  DEGREES       DB      DB      DB        RATIO     DEG.              VOLTS/M    DEGREES      VOLTS/M    DEGREES
 -180.00     0.00    -999.99 -999.99 -999.99    0.00000     0.00            2.06124E-12   165.50    0.00000E+00     0.00
 -175.00     0.00     -20.55 -999.99  -20.55    0.00000     0.00  LINEAR    1.76225E-02   -14.50    0.00000E+00     0.00
 -170.00     0.00     -14.53 -999.99  -14.53    0.00000     0.00  LINEAR    3.52391E-02   -14.51    0.00000E+00     0.00
 -165.00     0.00     -11.02 -999.99  -11.02    0.00000     0.00  LINEAR    5.28362E-02   -14.51    0.00000E+00     0.00
 -160.00     0.00      -8.53 -999.99   -8.53    0.00000     0.00  LINEAR    7.03856E-02   -14.52    0.00000E+00     0.00
 -155.00     0.00      -6.60 -999.99   -6.60    0.00000     0.00  LINEAR    8.78376E-02   -14.53    0.00000E+00     0.00
 -150.00     0.00      -5.04 -999.99   -5.04    0.00000     0.00  LINEAR    1.05116E-01   -14.54    0.00000E+00     0.00
 -145.00     0.00      -3.74 -999.99   -3.74    0.00000     0.00  LINEAR    1.22115E-01   -14.55    0.00000E+00     0.00
 -140.00     0.00      -2.63 -999.99   -2.63    0.00000     0.00  LINEAR    1.38696E-01   -14.56    0.00000E+00     0.00
 -135.00     0.00      -1.69 -999.99   -1.69    0.00000     0.00  LINEAR    1.54690E-01   -14.57    0.00000E+00     0.00
 -130.00     0.00      -0.87 -999.99   -0.87    0.00000     0.00  LINEAR    1.69899E-01   -14.58    0.00000E+00     0.00
 -125.00     0.00      -0.17 -999.99   -0.17    0.00000     0.00  LINEAR    1.84102E-01   -14.60    0.00000E+00     0.00
 -120.00     0.00       0.42 -999.99    0.42    0.00000     0.00  LINEAR    1.97065E-01   -14.61    0.00000E+00     0.00
 -115.00     0.00       0.91 -999.99    0.91    0.00000     0.00  LINEAR    2.08547E-01   -14.62    0.00000E+00     0.00
 -110.00     0.00       1.31 -999.99    1.31    0.00000     0.00  LINEAR    2.18319E-01   -14.62    0.00000E+00     0.00
 -105.00     0.00       1.61 -999.99    1.61    0.00000     0.00  LINEAR    2.26167E-01   -14.63    0.00000E+00     0.00
 -100.00     0.00       1.83 -999.99    1.83    0.00000     0.00  LINEAR    2.31912E-01   -14.64    0.00000E+00     0.00
  -95.00     0.00       1.96 -999.99    1.96    0.00000     0.00  LINEAR    2.35417E-01   -14.64    0.00000E+00     0.00
  -90.00     0.00       2.00 -999.99    2.00    0.00000     0.00  LINEAR    2.36595E-01   -14.64    0.00000E+00     0.00
  -85.00     0.00       1.96 -999.99    1.96    0.00000     0.00  LINEAR    2.35417E-01   -14.64    0.00000E+00     0.00
  -80.00     0.00       1.83 -999.99    1.83    0.00000     0.00  LINEAR    2.31912E-01   -14.64    0.00000E+00     0.00
  -75.00     0.00       1.61 -999.99    1.61    0.00000     0.00  LINEAR    2.26167E-01   -14.63    0.00000E+00     0.00
  -70.00     0.00       1.31 -999.99    1.31    0.00000     0.00  LINEAR    2.18319E-01   -14.62    0.00000E+00     0.00
  -65.00     0.00       0.91 -999.99    0.91    0.00000     0.00  LINEAR    2.08547E-01   -14.62    0.00000E+00     0.00
  -60.00     0.00       0.42 -999.99    0.42    0.00000     0.00  LINEAR    1.97065E-01   -14.61    0.00000E+00     0.00
  -55.00     0.00      -0.17 -999.99   -0.17    0.00000     0.00  LINEAR    1.84102E-01   -14.60    0.00000E+00     0.00
  -50.00     0.00      -0.87 -999.99   -0.87    0.00000     0.00  LINEAR    1.69899E-01   -14.58    0.00000E+00     0.00
  -45.00     0.00      -1.69 -999.99   -1.69    0.00000     0.00  LINEAR    1.54690E-01   -14.57    0.00000E+00     0.00
  -40.00     0.00      -2.63 -999.99   -2.63    0.00000     0.00  LINEAR    1.38696E-01   -14.56    0.00000E+00     0.00
  -35.00     0.00      -3.74 -999.99   -3.74    0.00000     0.00  LINEAR    1.22115E-01   -14.55    0.00000E+00     0.00
  -30.00     0.00      -5.04 -999.99   -5.04    0.00000     0.00  LINEAR    1.05116E-01   -14.54    0.00000E+00     0.00
  -25.00     0.00      -6.60 -999.99   -6.60    0.00000     0.00  LINEAR    8.78376E-02   -14.53    0.00000E+00     0.00
  -20.00     0.00      -8.53 -999.99   -8.53    0.00000     0.00  LINEAR    7.03856E-02   -14.52    0.00000E+00     0.00
  -15.00     0.00     -11.02 -999.99  -11.02    0.00000     0.00  LINEAR    5.28362E-02   -14.51    0.00000E+00     0.00
  -10.00     0.00     -14.53 -999.99  -14.53    0.00000     0.00  LINEAR    3.52391E-02   -14.51    0.00000E+00     0.00
   -5.00     0.00     -20.55 -999.99  -20.55    0.00000     0.00  LINEAR    1.76225E-02   -14.50    0.00000E+00     0.00
    0.00     0.00    -999.99 -999.99 -999.99    0.00000     0.00            0.00000E+00     0.00    0.00000E+00     0.00
    5.00     0.00     -20.55 -999.99  -20.55    0.00000     0.00  LINEAR    1.76225E-02   165.50    0.00000E+00     0.00
   10.00     0.00     -14.53 -999.99  -14.53    0.00000     0.00  LINEAR    3.52391E-02   165.49    0.00000E+00     0.00
   15.00     0.00     -11.02 -999.99  -11.02    0.00000     0.00  LINEAR    5.28362E-02   165.49    0.00000E+00     0.00
   20.00     0.00      -8.53 -999.99   -8.53    0.00000     0.00  LINEAR    7.03856E-02   165.48    0.00000E+00     0.00
   25.00     0.00      -6.60 -999.99   -6.60    0.00000     0.00  LINEAR    8.78376E-02   165.47    0.00000E+00     0.00
   30.00     0.00      -5.04 -999.99   -5.04    0.00000     0.00  LINEAR    1.05116E-01   165.46    0.00000E+00     0.00
   35.00     0.00      -3.74 -999.99   -3.74    0.00000     0.00  LINEAR    1.22115E-01   165.45    0.00000E+00     0.00
   40.00     0.00      -2.63 -999.99   -2.63    0.00000     0.00  LINEAR    1.38696E-01   165.44    0.00000E+00     0.00
   45.00     0.00      -1.69 -999.99   -1.69    0.00000     0.00  LINEAR    1.54690E-01   165.43    0.00000E+00     0.00
   50.00     0.00      -0.87 -999.99   -0.87    0.00000     0.00  LINEAR    1.69899E-01   165.42    0.00000E+00     0.00
   55.00     0.00      -0.17 -999.99   -0.17    0.00000     0.00  LINEAR    1.84102E-01   165.40    0.00000E+00     0.00
   60.00     0.00       0.42 -999.99    0.42    0.00000     0.00  LINEAR    1.97065E-01   165.39    0.00000E+00     0.00
   65.00     0.00       0.91 -999.99    0.91    0.00000     0.00  LINEAR    2.08547E-01   165.38    0.00000E+00     0.00
   70.00     0.00       1.31 -999.99    1.31    0.00000     0.00  LINEAR    2.18319E-01   165.38    0.00000E+00     0.00
   75.00     0.00       1.61 -999.99    1.61    0.00000     0.00  LINEAR    2.26167E-01   165.37    0.00000E+00     0.00
   80.00     0.00       1.83 -999.99    1.83    0.00000     0.00  LINEAR    2.31912E-01   165.36    0.00000E+00     0.00
   85.00     0.00       1.96 -999.99    1.96    0.00000     0.00  LINEAR    2.35417E-01   165.36    0.00000E+00     0.00
   90.00     0.00       2.00 -999.99    2.00    0.00000     0.00  LINEAR    2.36595E-01   165.36    0.00000E+00     0.00
   95.00     0.00       1.96 -999.99    1.96    0.00000     0.00  LINEAR    2.35417E-01   165.36    0.00000E+00     0.00
  100.00     0.00       1.83 -999.99    1.83    0.00000     0.00  LINEAR    2.31912E-01   165.36    0.00000E+00     0.00
  105.00     0.00       1.61 -999.99    1.61    0.00000     0.00  LINEAR    2.26167E-01   165.37    0.00000E+00     0.00
  110.00     0.00       1.31 -999.99    1.31    0.00000     0.00  LINEAR    2.18319E-01   165.38    0.00000E+00     0.00
  115.00     0.00       0.91 -999.99    0.91    0.00000     0.00  LINEAR    2.08547E-01   165.38    0.00000E+00     0.00
  120.00     0.00       0.42 -999.99    0.42    0.00000     0.00  LINEAR    1.97065E-01   165.39    0.00000E+00     0.00
  125.00     0.00      -0.17 -999.99   -0.17    0.00000     0.00  LINEAR    1.84102E-01   165.40    0.00000E+00     0.00
  130.00     0.00      -0.87 -999.99   -0.87    0.00000     0.00  LINEAR    1.69899E-01   165.42    0.00000E+00     0.00
  135.00     0.00      -1.69 -999.99   -1.69    0.00000     0.00  LINEAR    1.54690E-01   165.43    0.00000E+00     0.00
  140.00     0.00      -2.63 -999.99   -2.63    0.00000     0.00  LINEAR    1.38696E-01   165.44    0.00000E+00     0.00
  145.00     0.00      -3.74 -999.99   -3.74    0.00000     0.00  LINEAR    1.22115E-01   165.45    0.00000E+00     0.00
  150.00     0.00      -5.04 -999.99   -5.04    0.00000     0.00  LINEAR    1.05116E-01   165.46    0.00000E+00     0.00
  155.00     0.00      -6.60 -999.99   -6.60    0.00000     0.00  LINEAR    8.78376E-02   165.47    0.00000E+00     0.00
  160.00     0.00      -8.53 -999.99   -8.53    0.00000     0.00  LINEAR    7.03856E-02   165.48    0.00000E+00     0.00
  165.00     0.00     -11.02 -999.99  -11.02    0.00000     0.00  LINEAR    5.28362E-02   165.49    0.00000E+00     0.00
  170.00     0.00     -14.53 -999.99  -14.53    0.00000     0.00  LINEAR    3.52391E-02   165.49    0.00000E+00     0.00
  175.00     0.00     -20.55 -999.99  -20.55    0.00000     0.00  LINEAR    1.76225E-02   165.50    0.00000E+00     0.00
  180.00     0.00    -999.99 -999.99 -999.99    0.00000     0.00            2.06124E-12   -14.50    0.00000E+00     0.00




                                 - - - - - - FREQUENCY - - - - - -

                                    FREQUENCY= 5.2000E+02 MHZ
                                    WAVELENGTH= 5.7654E-01 METERS




                    APPROXIMATE INTEGRATION EMPLOYED FOR SEGMENTS MORE THAN   1.000 WAVELENGTHS APART

                    THE EXTENDED THIN WIRE KERNEL WILL BE USED



                               - - - STRUCTURE IMPEDANCE LOADING - - -

                                   THIS STRUCTURE IS NOT LOADED



                                  - - - ANTENNA ENVIRONMENT - - -

                                            FREE SPACE



                                - - - MATRIX TIMING - - -

                        FILL=    0.000 SEC.,  FACTOR=    0.000 SEC.



                                          - - - ANTENNA INPUT PARAMETERS - - -

   TAG   SEG.    VOLTAGE (VOLTS)         CURRENT (AMPS)         IMPEDANCE (OHMS)        ADMITTANCE (MHOS)      POWER
   NO.   NO.    REAL        IMAG.       REAL        IMAG.       REAL        IMAG.       REAL        IMAG.     (WATTS)
     1     5 1.00000E+00 0.00000E+00 1.54070E-03 5.42389E-03 4.84613E+01-1.70604E+02 1.54070E-03 5.42389E-03 7.70350E-04



                             - - - CURRENTS AND LOCATION - - -

                                 DISTANCES IN WAVELENGTHS


  SEG.  TAG    COORD. OF SEG. CENTER     SEG.            - - - CURRENT (AMPS) - - -
  NO.   NO.     X        Y        Z      LENGTH     REAL        IMAG.       MAG.        PHASE
     1    1   0.0000   0.0000  -0.1850  0.04625   3.2025E-04  9.4400E-04  9.9684E-04   71.260
     2    1   0.0000   0.0000  -0.1388  0.04625   8.3530E-04  2.5473E-03  2.6807E-03   71.845
     3    1   0.0000   0.0000  -0.0925  0.04625   1.2185E-03  3.8691E-03  4.0565E-03   72.520
     4    1   0.0000   0.0000  -0.0463  0.04625   1.4587E-03  4.8774E-03  5.0909E-03   73.349
     5    1   0.0000   0.0000   0.0000  0.04625   1.5407E-03  5.4239E-03  5.6385E-03   74.142
     6    1   0.0000   0.0000   0.0463  0.04625   1.4587E-03  4.8774E-03  5.0909E-03   73.349
     7    1   0.0000   0.0000   0.0925  0.04625   1.2185E-03  3.8691E-03  4.0565E-03   72.520
     8    1   0.0000   0.0000   0.1388  0.04625   8.3530E-04  2.5473E-03  2.6807E-03   71.845
     9    1   0.0000   0.0000   0.1850  0.04625   3.2025E-04  9.4400E-04  9.9684E-04   71.260



                                        - - - POWER BUDGET - - -

                                           INPUT POWER   = 7.7035E-04 WATTS
                                           RADIATED POWER= 7.7035E-04 WATTS
                                           STRUCTURE LOSS= 0.0000E+00 WATTS
                                           NETWORK LOSS  = 0.0000E+00 WATTS
                                           EFFICIENCY    = 100.00 PERCENT



                                                - - - RADIATION PATTERNS - - -

  - - ANGLES - -           - POWER GAINS -       - - - POLARIZATION - - -    - - - E(THETA) - - -    - - - E(PHI) - - -
  THETA     PHI        VERT.   HOR.    TOTAL      AXIAL     TILT   SENSE     MAGNITUDE    PHASE      MAGNITUDE    PHASE 
 DEGREES  DEGREES       DB      DB      DB        RATIO     DEG.              VOLTS/M    DEGREES      VOLTS/M    DEGREES
 -180.00     0.00    -999.99 -999.99 -999.99    0.00000     0.00            2.34471E-12   163.05    0.00000E+00     0.00
 -175.00     0.00     -20.60 -999.99  -20.60    0.00000     0.00  LINEAR    2.00471E-02   -16.95    0.00000E+00     0.00
 -170.00     0.00     -14.58 -999.99  -14.58    0.00000     0.00  LINEAR    4.00943E-02   -16.95    0.00000E+00     0.00
 -165.00     0.00     -11.06 -999.99  -11.06    0.00000     0.00  LINEAR    6.01324E-02   -16.96    0.00000E+00     0.00
 -160.00     0.00      -8.57 -999.99   -8.57    0.00000     0.00  LINEAR    8.01348E-02   -16.97    0.00000E+00     0.00
 -155.00     0.00      -6.64 -999.99   -6.64    0.00000     0.00  LINEAR    1.00050E-01   -16.98    0.00000E+00     0.00
 -150.00     0.00      -5.08 -999.99   -5.08    0.00000     0.00  LINEAR    1.19793E-01   -16.99    0.00000E+00     0.00
 -145.00     0.00      -3.77 -999.99   -3.77    0.00000     0.00  LINEAR    1.39245E-01   -17.00    0.00000E+00     0.00
 -140.00     0.00      -2.66 -999.99   -2.66    0.00000     0.00  LINEAR    1.58248E-01   -17.02    0.00000E+00     0.00
 -135.00     0.00      -1.71 -999.99   -1.71    0.00000     0.00  LINEAR    1.76606E-01   -17.03    0.00000E+00     0.00
 -130.00     0.00      -0.89 -999.99   -0.89    0.00000     0.00  LINEAR    1.94089E-01   -17.04    0.00000E+00     0.00
 -125.00     0.00      -0.18 -999.99   -0.18    0.00000     0.00  LINEAR    2.10439E-01   -17.06    0.00000E+00     0.00
 -120.00     0.00       0.41 -999.99    0.41    0.00000     0.00  LINEAR    2.25380E-01   -17.07    0.00000E+00     0.00
 -115.00     0.00       0.91 -999.99    0.91    0.00000     0.00  LINEAR    2.38631E-01   -17.08    0.00000E+00     0.00
 -110.00     0.00       1.31 -999.99    1.31    0.00000     0.00  LINEAR    2.49918E-01   -17.09    0.00000E+00     0.00
 -105.00     0.00       1.62 -999.99    1.62    0.00000     0.00  LINEAR    2.58991E-01   -17.09    0.00000E+00     0.00
 -100.00     0.00       1.84 -999.99    1.84    0.00000     0.00  LINEAR    2.65637E-01   -17.10    0.00000E+00     0.00
  -95.00     0.00       1.97 -999.99    1.97    0.00000     0.00  LINEAR    2.69692E-01   -17.10    0.00000E+00     0.00
  -90.00     0.00       2.02 -999.99    2.02    0.00000     0.00  LINEAR    2.71056E-01   -17.10    0.00000E+00     0.00
  -85.00     0.00       1.97 -999.99    1.97    0.00000     0.00  LINEAR    2.69692E-01   -17.10    0.00000E+00     0.00
  -80.00     0.00       1.84 -999.99    1.84    0.00000     0.00  LINEAR    2.65637E-01   -17.10    0.00000E+00     0.00
  -75.00     0.00       1.62 -999.99    1.62    0.00000     0.00  LINEAR    2.58991E-01   -17.09    0.00000E+00     0.00
  -70.00     0.00       1.31 -999.99    1.31    0.00000     0.00  LINEAR    2.49918E-01   -17.09    0.00000E+00     0.00
  -65.00     0.00       0.91 -999.99    0.91    0.00000     0.00  LINEAR    2.38631E-01   -17.08    0.00000E+00     0.00
  -60.00     0.00       0.41 -999.99    0.41    0.00000     0.00  LINEAR    2.25380E-01   -17.07    0.00000E+00     0.00
  -55.00     0.00      -0.18 -999.99   -0.18    0.00000     0.00  LINEAR    2.10439E-01   -17.06    0.00000E+00     0.00
  -50.00     0.00      -0.89 -999.99   -0.89    0.00000     0.00  LINEAR    1.94089E-01   -17.04    0.00000E+00     0.00
  -45.00     0.00      -1.71 -999.99   -1.71    0.00000     0.00  LINEAR    1.76606E-01   -17.03    0.00000E+00     0.00
  -40.00     0.00      -2.66 -999.99   -2.66    0.00000     0.00  LINEAR    1.58248E-01   -17.02    0.00000E+00     0.00
  -35.00     0.00      -3.77 -999.99   -3.77    0.00000     0.00  LINEAR    1.39245E-01   -17.00    0.00000E+00     0.00
  -30.00     0.00      -5.08 -999.99   -5.08    0.00000     0.00  LINEAR    1.19793E-01   -16.99    0.00000E+00     0.00
  -25.00     0.00      -6.64 -999.99   -6.64    0.00000     0.00  LINEAR    1.00050E-01   -16.98    0.00000E+00     0.00
  -20.00     0.00      -8.57 -999.99   -8.57    0.00000     0.00  LINEAR    8.01348E-02   -16.97    0.00000E+00     0.00
  -15.00     0.00     -11.06 -999.99  -11.06    0.00000     0.00  LINEAR    6.01324E-02   -16.96    0.00000E+00     0.00
  -10.00     0.00     -14.58 -999.99  -14.58    0.00000     0.00  LINEAR    4.00943E-02   -16.95    0.00000E+00     0.00
   -5.00     0.00     -20.60 -999.99  -20.60    0.00000     0.00  LINEAR    2.00471E-02   -16.95    0.00000E+00     0.00
    0.00     0.00    -999.99 -999.99 -999.99    0.00000     0.00            0.00000E+00     0.00    0.00000E+00     0.00
    5.00     0.00     -20.60 -999.99  -20.60    0.00000     0.00  LINEAR    2.00471E-02   163.05    0.00000E+00     0.00
   10.00     0.00     -14.58 -999.99  -14.58    0.00000     0.00  LINEAR    4.00943E-02   163.05    0.00000E+00     0.00
   15.00     0.00     -11.06 -999.99  -11.06    0.00000     0.00  LINEAR    6.01324E-02   163.04    0.00000E+00     0.00
   20.00     0.00      -8.57 -999.99   -8.57    0.00000     0.00  LINEAR    8.01348E-02   163.03    0.00000E+00     0.00
   25.00     0.00      -6.64 -999.99   -6.64    0.00000     0.00  LINEAR    1.00050E-01   163.02    0.00000E+00     0.00
   30.00     0.00      -5.08 -999.99   -5.08    0.00000     0.00  LINEAR    1.19793E-01   163.01    0.00000E+00     0.00
   35.00     0.00      -3.77 -999.99   -3.77    0.00000     0.00  LINEAR    1.39245E-01   163.00    0.00000E+00     0.00
   40.00     0.00      -2.66 -999.99   -2.66    0.00000     0.00  LINEAR    1.58248E-01   162.98    0.00000E+00     0.00
   45.00     0.00      -1.71 -999.99   -1.71    0.00000     0.00  LINEAR    1.76606E-01   162.97    0.00000E+00     0.00
   50.00     0.00      -0.89 -999.99   -0.89    0.00000     0.00  LINEAR    1.94089E-01   162.96    0.00000E+00     0.00
   55.00     0.00      -0.18 -999.99   -0.18    0.00000     0.00  LINEAR    2.10439E-01   162.94    0.00000E+00     0.00
   60.00     0.00       0.41 -999.99    0.41    0.00000     0.00  LINEAR    2.25380E-01   162.93    0.00000E+00     0.00
   65.00     0.00       0.91 -999.99    0.91    0.00000     0.00  LINEAR    2.38631E-01   162.92    0.00000E+00     0.00
   70.00     0.00       1.31 -999.99    1.31    0.00000     0.00  LINEAR    2.49918E-01   162.91    0.00000E+00     0.00
   75.00     0.00       1.62 -999.99    1.62    0.00000     0.00  LINEAR    2.58991E-01   162.91    0.00000E+00     0.00
   80.00     0.00       1.84 -999.99    1.84    0.00000     0.00  LINEAR    2.65637E-01   162.90    0.00000E+00     0.00
   85.00     0.00       1.97 -999.99    1.97    0.00000     0.00  LINEAR    2.69692E-01   162.90    0.00000E+00     0.00
   90.00     0.00       2.02 -999.99    2.02    0.00000     0.00  LINEAR    2.71056E-01   162.90    0.00000E+00     0.00
   95.00     0.00       1.97 -999.99    1.97    0.00000     0.00  LINEAR    2.69692E-01   162.90    0.00000E+00     0.00
  100.00     0.00       1.84 -999.99    1.84    0.00000     0.00  LINEAR    2.65637E-01   162.90    0.00000E+00     0.00
  105.00     0.00       1.62 -999.99    1.62    0.00000     0.00  LINEAR    2.58991E-01   162.91    0.00000E+00     0.00
  110.00     0.00       1.31 -999.99    1.31    0.00000     0.00  LINEAR    2.49918E-01   162.91    0.00000E+00     0.00
  115.00     0.00       0.91 -999.99    0.91    0.00000     0.00  LINEAR    2.38631E-01   162.92    0.00000E+00     0.00
  120.00     0.00       0.41 -999.99    0.41    0.00000     0.00  LINEAR    2.25380E-01   162.93    0.00000E+00     0.00
  125.00     0.00      -0.18 -999.99   -0.18    0.00000     0.00  LINEAR    2.10439E-01   162.94    0.00000E+00     0.00
  130.00     0.00      -0.89 -999.99   -0.89    0.00000     0.00  LINEAR    1.94089E-01   162.96    0.00000E+00     0.00
  135.00     0.00      -1.71 -999.99   -1.71    0.00000     0.00  LINEAR    1.76606E-01   162.97    0.00000E+00     0.00
  140.00     0.00      -2.66 -999.99   -2.66    0.00000     0.00  LINEAR    1.58248E-01   162.98    0.00000E+00     0.00
  145.00     0.00      -3.77 -999.99   -3.77    0.00000     0.00  LINEAR    1.39245E-01   163.00    0.00000E+00     0.00
  150.00     0.00      -5.08 -999.99   -5.08    0.00000     0.00  LINEAR    1.19793E-01   163.01    0.00000E+00     0.00
  155.00     0.00      -6.64 -999.99   -6.64    0.00000     0.00  LINEAR    1.00050E-01   163.02    0.00000E+00     0.00
  160.00     0.00      -8.57 -999.99   -8.57    0.00000     0.00  LINEAR    8.01348E-02   163.03    0.00000E+00     0.00
  165.00     0.00     -11.06 -999.99  -11.06    0.00000     0.00  LINEAR    6.01324E-02   163.04    0.00000E+00     0.00
  170.00     0.00     -14.58 -999.99  -14.58    0.00000     0.00  LINEAR    4.00943E-02   163.05    0.00000E+00     0.00
  175.00     0.00     -20.60 -999.99  -20.60    0.00000     0.00  LINEAR    2.00471E-02   163.05    0.00000E+00     0.00
  180.00     0.00    -999.99 -999.99 -999.99    0.00000     0.00            2.34471E-12   -16.95    0.00000E+00     0.00




                                 - - - - - - FREQUENCY - - - - - -

                                    FREQUENCY= 5.3000E+02 MHZ
                                    WAVELENGTH= 5.6566E-01 METERS




                    APPROXIMATE INTEGRATION EMPLOYED FOR SEGMENTS MORE THAN   1.000 WAVELENGTHS APART

                    THE EXTENDED THIN WIRE KERNEL WILL BE USED



                               - - - STRUCTURE IMPEDANCE LOADING - - -

                                   THIS STRUCTURE IS NOT LOADED



                                  - - - ANTENNA ENVIRONMENT - - -

                                            FREE SPACE



                                - - - MATRIX TIMING - - -

                        FILL=    0.000 SEC.,  FACTOR=    0.000 SEC.



                                          - - - ANTENNA INPUT PARAMETERS - - -

   TAG   SEG.    VOLTAGE (VOLTS)         CURRENT (AMPS)         IMPEDANCE (OHMS)        ADMITTANCE (MHOS)      POWER
   NO.   NO.    REAL        IMAG.       REAL        IMAG.       REAL        IMAG.       REAL        IMAG.     (WATTS)
     1     5 1.00000E+00 0.00000E+00 2.05282E-03 6.00868E-03 5.09153E+01-1.49031E+02 2.05282E-03 6.00868E-03 1.02641E-03



                             - - - CURRENTS AND LOCATION - - -

                                 DISTANCES IN WAVELENGTHS


  SEG.  TAG    COORD. OF SEG. CENTER     SEG.            - - - CURRENT (AMPS) - - -
  NO.   NO.     X        Y        Z      LENGTH     REAL        IMAG.       MAG.        PHASE
     1    1   0.0000   0.0000  -0.1886  0.04714   4.2449E-04  1.0556E-03  1.1378E-03   68.094
     2    1   0.0000   0.0000  -0.1414  0.04714   1.1097E-03  2.8471E-03  3.0558E-03   68.706
     3    1   0.0000   0.0000  -0.0943  0.04714   1.6214E-03  4.3171E-03  4.6115E-03   69.415
     4    1   0.0000   0.0000  -0.0471  0.04714   1.9430E-03  5.4241E-03  5.7616E-03   70.292
     5    1   0.0000   0.0000   0.0000  0.04714   2.0528E-03  6.0087E-03  6.3497E-03   71.138
     6    1   0.0000   0.0000   0.0471  0.04714   1.9430E-03  5.4241E-03  5.7616E-03   70.292
     7    1   0.0000   0.0000   0.0943  0.04714   1.6214E-03  4.3171E-03  4.6115E-03   69.415
     8    1   0.0000   0.0000   0.1414  0.04714   1.1097E-03  2.8471E-03  3.0558E-03   68.706
     9    1   0.0000   0.0000   0.1886  0.04714   4.2449E-04  1.0556E-03  1.1378E-03   68.094



                                        - - - POWER BUDGET - - -

                                           INPUT POWER   = 1.0264E-03 WATTS
                                           RADIATED POWER= 1.0264E-03 WATTS
                                           STRUCTURE LOSS= 0.0000E+00 WATTS
                                           NETWORK LOSS  = 0.0000E+00 WATTS
                                           EFFICIENCY    = 100.00 PERCENT



                                                - - - RADIATION PATTERNS - - -

  - - ANGLES - -           - POWER GAINS -       - - - POLARIZATION - - -    - - - E(THETA) - - -    - - - E(PHI) - - -
  THETA     PHI        VERT.   HOR.    TOTAL      AXIAL     TILT   SENSE     MAGNITUDE    PHASE      MAGNITUDE    PHASE 
 DEGREES  DEGREES       DB      DB      DB        RATIO     DEG.              VOLTS/M    DEGREES      VOLTS/M    DEGREES
 -180.00     0.00    -999.99 -999.99 -999.99    0.00000     0.00            2.69024E-12   159.98    0.00000E+00     0.00
 -175.00     0.00     -20.66 -999.99  -20.66    0.00000     0.00  LINEAR    2.30028E-02   -20.02    0.00000E+00     0.00
 -170.00     0.00     -14.63 -999.99  -14.63    0.00000     0.00  LINEAR    4.60136E-02   -20.02    0.00000E+00     0.00
 -165.00     0.00     -11.11 -999.99  -11.11    0.00000     0.00  LINEAR    6.90295E-02   -20.03    0.00000E+00     0.00
 -160.00     0.00      -8.61 -999.99   -8.61    0.00000     0.00  LINEAR    9.20266E-02   -20.04    0.00000E+00     0.00
 -155.00     0.00      -6.68 -999.99   -6.68    0.00000     0.00  LINEAR    1.14950E-01   -20.05    0.00000E+00     0.00
 -150.00     0.00      -5.11 -999.99   -5.11    0.00000     0.00  LINEAR    1.37709E-01   -20.06    0.00000E+00     0.00
 -145.00     0.00      -3.80 -999.99   -3.80    0.00000     0.00  LINEAR    1.60165E-01   -20.08    0.00000E+00     0.00
 -140.00     0.00      -2.68 -999.99   -2.68    0.00000     0.00  LINEAR    1.82137E-01   -20.09    0.00000E+00     0.00
 -135.00     0.00      -1.72 -999.99   -1.72    0.00000     0.00  LINEAR    2.03396E-01   -20.11    0.00000E+00     0.00
 -130.00     0.00      -0.90 -999.99   -0.90    0.00000     0.00  LINEAR    2.23672E-01   -20.12    0.00000E+00     0.00
 -125.00     0.00      -0.19 -999.99   -0.19    0.00000     0.00  LINEAR    2.42662E-01   -20.14    0.00000E+00     0.00
 -120.00     0.00       0.41 -999.99    0.41    0.00000     0.00  LINEAR    2.60038E-01   -20.15    0.00000E+00     0.00
 -115.00     0.00       0.91 -999.99    0.91    0.00000     0.00  LINEAR    2.75467E-01   -20.16    0.00000E+00     0.00
 -110.00     0.00       1.31 -999.99    1.31    0.00000     0.00  LINEAR    2.88622E-01   -20.17    0.00000E+00     0.00
 -105.00     0.00       1.63 -999.99    1.63    0.00000     0.00  LINEAR    2.99206E-01   -20.18    0.00000E+00     0.00
 -100.00     0.00       1.85 -999.99    1.85    0.00000     0.00  LINEAR    3.06962E-01   -20.18    0.00000E+00     0.00
  -95.00     0.00       1.98 -999.99    1.98    0.00000     0.00  LINEAR    3.11698E-01   -20.19    0.00000E+00     0.00
  -90.00     0.00       2.03 -999.99    2.03    0.00000     0.00  LINEAR    3.13290E-01   -20.19    0.00000E+00     0.00
  -85.00     0.00       1.98 -999.99    1.98    0.00000     0.00  LINEAR    3.11698E-01   -20.19    0.00000E+00     0.00
  -80.00     0.00       1.85 -999.99    1.85    0.00000     0.00  LINEAR    3.06962E-01   -20.18    0.00000E+00     0.00
  -75.00     0.00       1.63 -999.99    1.63    0.00000     0.00  LINEAR    2.99206E-01   -20.18    0.00000E+00     0.00
  -70.00     0.00       1.31 -999.99    1.31    0.00000     0.00  LINEAR    2.88622E-01   -20.17    0.00000E+00     0.00
  -65.00     0.00       0.91 -999.99    0.91    0.00000     0.00  LINEAR    2.75467E-01   -20.16    0.00000E+00     0.00
  -60.00     0.00       0.41 -999.99    0.41    0.00000     0.00  LINEAR    2.60038E-01   -20.15    0.00000E+00     0.00
  -55.00     0.00      -0.19 -999.99   -0.19    0.00000     0.00  LINEAR    2.42662E-01   -20.14    0.00000E+00     0.00
  -50.00     0.00      -0.90 -999.99   -0.90    0.00000     0.00  LINEAR    2.23672E-01   -20.12    0.00000E+00     0.00
  -45.00     0.00      -1.72 -999.99   -1.72    0.00000     0.00  LINEAR    2.03396E-01   -20.11    0.00000E+00     0.00
  -40.00     0.00      -2.68 -999.99   -2.68    0.00000     0.00  LINEAR    1.82137E-01   -20.09    0.00000E+00     0.00
  -35.00     0.00      -3.80 -999.99   -3.80    0.00000     0.00  LINEAR    1.60165E-01   -20.08    0.00000E+00     0.00
  -30.00     0.00      -5.11 -999.99   -5.11    0.00000     0.00  LINEAR    1.37709E-01   -20.06    0.00000E+00     0.00
  -25.00     0.00      -6.68 -999.99   -6.68    0.00000     0.00  LINEAR    1.14950E-01   -20.05    0.00000E+00     0.00
  -20.00     0.00      -8.61 -999.99   -8.61    0.00000     0.00  LINEAR    9.20266E-02   -20.04    0.00000E+00     0.00
  -15.00     0.00     -11.11 -999.99  -11.11    0.00000     0.00  LINEAR    6.90295E-02   -20.03    0.00000E+00     0.00
  -10.00     0.00     -14.63 -999.99  -14.63    0.00000     0.00  LINEAR    4.60136E-02   -20.02    0.00000E+00     0.00
   -5.00     0.00     -20.66 -999.99  -20.66    0.00000     0.00  LINEAR    2.30028E-02   -20.02    0.00000E+00     0.00
    0.00     0.00    -999.99 -999.99 -999.99    0.00000     0.00            0.00000E+00     0.00    0.00000E+00     0.00
    5.00     0.00     -20.66 -999.99  -20.66    0.00000     0.00  LINEAR    2.30028E-02   159.98    0.00000E+00     0.00
   10.00     0.00     -14.63 -999.99  -14.63    0.00000     0.00  LINEAR    4.60136E-02   159.98    0.00000E+00     0.00
   15.00     0.00     -11.11 -999.99  -11.11    0.00000     0.00  LINEAR    6.90295E-02   159.97    0.00000E+00     0.00
   20.00     0.00      -8.61 -999.99   -8.61    0.00000     0.00  LINEAR    9.20266E-02   159.96    0.00000E+00     0.00
   25.00     0.00      -6.68 -999.99   -6.68    0.00000     0.00  LINEAR    1.14950E-01   159.95    0.00000E+00     0.00
   30.00     0.00      -5.11 -999.99   -5.11    0.00000     0.00  LINEAR    1.37709E-01   159.94    0.00000E+00     0.00
   35.00     0.00      -3.80 -999.99   -3.80    0.00000     0.00  LINEAR    1.60165E-01   159.92    0.00000E+00     0.00
   40.00     0.00      -2.68 -999.99   -2.68    0.00000     0.00  LINEAR    1.82137E-01   159.91    0.00000E+00     0.00
   45.00     0.00      -1.72 -999.99   -1.72    0.00000     0.00  LINEAR    2.03396E-01   159.89    0.00000E+00     0.00
   50.00     0.00      -0.90 -999.99   -0.90    0.00000     0.00  LINEAR    2.23672E-01   159.88    0.00000E+00     0.00
   55.00     0.00      -0.19 -999.99   -0.19    0.00000     0.00  LINEAR    2.42662E-01   159.86    0.00000E+00     0.00
   60.00     0.00       0.41 -999.99    0.41    0.00000     0.00  LINEAR    2.60038E-01   159.85    0.00000E+00     0.00
   65.00     0.00       0.91 -999.99    0.91    0.00000     0.00  LINEAR    2.75467E-01   159.84    0.00000E+00     0.00
   70.00     0.00       1.31 -999.99    1.31    0.00000     0.00  LINEAR    2.88622E-01   159.83    0.00000E+00     0.00
   75.00     0.00       1.63 -999.99    1.63    0.00000     0.00  LINEAR    2.99206E-01   159.82    0.00000E+00     0.00
   80.00     0.00       1.85 -999.99    1.85    0.00000     0.00  LINEAR    3.06962E-01   159.82    0.00000E+00     0.00
   85.00     0.00       1.98 -999.99    1.98    0.00000     0.00  LINEAR    3.11698E-01   159.81    0.00000E+00     0.00
   90.00     0.00       2.03 -999.99    2.03    0.00000     0.00  LINEAR    3.13290E-01   159.81    0.00000E+00     0.00
   95.00     0.00       1.98 -999.99    1.98    0.00000     0.00  LINEAR    3.11698E-01   159.81    0.00000E+00     0.00
  100.00     0.00       1.85 -999.99    1.85    0.00000     0.00  LINEAR    3.06962E-01   159.82    0.00000E+00     0.00
  105.00     0.00       1.63 -999.99    1.63    0.00000     0.00  LINEAR    2.99206E-01   159.82    0.00000E+00     0.00
  110.00     0.00       1.31 -999.99    1.31    0.00000     0.00  LINEAR    2.88622E-01   159.83    0.00000E+00     0.00
  115.00     0.00       0.91 -999.99    0.91    0.00000     0.00  LINEAR    2.75467E-01   159.84    0.00000E+00     0.00
  120.00     0.00       0.41 -999.99    0.41    0.00000     0.00  LINEAR    2.60038E-01   159.85    0.00000E+00     0.00
  125.00     0.00      -0.19 -999.99   -0.19    0.00000     0.00  LINEAR    2.42662E-01   159.86    0.00000E+00     0.00
  130.00     0.00      -0.90 -999.99   -0.90    0.00000     0.00  LINEAR    2.23672E-01   159.88    0.00000E+00     0.00
  135.00     0.00      -1.72 -999.99   -1.72    0.00000     0.00  LINEAR    2.03396E-01   159.89    0.00000E+00     0.00
  140.00     0.00      -2.68 -999.99   -2.68    0.00000     0.00  LINEAR    1.82137E-01   159.91    0.00000E+00     0.00
  145.00     0.00      -3.80 -999.99   -3.80    0.00000     0.00  LINEAR    1.60165E-01   159.92    0.00000E+00     0.00
  150.00     0.00      -5.11 -999.99   -5.11    0.00000     0.00  LINEAR    1.37709E-01   159.94    0.00000E+00     0.00
  155.00     0.00      -6.68 -999.99   -6.68    0.00000     0.00  LINEAR    1.14950E-01   159.95    0.00000E+00     0.00
  160.00     0.00      -8.61 -999.99   -8.61    0.00000     0.00  LINEAR    9.20266E-02   159.96    0.00000E+00     0.00
  165.00     0.00     -11.11 -999.99  -11.11    0.00000     0.00  LINEAR    6.90295E-02   159.97    0.00000E+00     0.00
  170.00     0.00     -14.63 -999.99  -14.63    0.00000     0.00  LINEAR    4.60136E-02   159.98    0.00000E+00     0.00
  175.00     0.00     -20.66 -999.99  -20.66    0.00000     0.00  LINEAR    2.30028E-02   159.98    0.00000E+00     0.00
  180.00     0.00    -999.99 -999.99 -999.99    0.00000     0.00            2.69024E-12   -20.02    0.00000E+00     0.00




                                 - - - - - - FREQUENCY - - - - - -

                                    FREQUENCY= 5.4000E+02 MHZ
                                    WAVELENGTH= 5.5519E-01 METERS




                    APPROXIMATE INTEGRATION EMPLOYED FOR SEGMENTS MORE THAN   1.000 WAVELENGTHS APART

                    THE EXTENDED THIN WIRE KERNEL WILL BE USED



                               - - - STRUCTURE IMPEDANCE LOADING - - -

                                   THIS STRUCTURE IS NOT LOADED



                                  - - - ANTENNA ENVIRONMENT - - -

                                            FREE SPACE



                                - - - MATRIX TIMING - - -

                        FILL=    0.000 SEC.,  FACTOR=    0.000 SEC.



                                          - - - ANTENNA INPUT PARAMETERS - - -

[...]
 -135.00     0.00      -2.20 -999.99   -2.20    0.00000     0.00  LINEAR    1.88402E-01  -154.34    0.00000E+00     0.00
 -130.00     0.00      -1.24 -999.99   -1.24    0.00000     0.00  LINEAR    2.10342E-01  -154.40    0.00000E+00     0.00
 -125.00     0.00      -0.41 -999.99   -0.41    0.00000     0.00  LINEAR    2.31522E-01  -154.47    0.00000E+00     0.00
 -120.00     0.00       0.31 -999.99    0.31    0.00000     0.00  LINEAR    2.51442E-01  -154.52    0.00000E+00     0.00
 -115.00     0.00       0.91 -999.99    0.91    0.00000     0.00  LINEAR    2.69559E-01  -154.57    0.00000E+00     0.00
 -110.00     0.00       1.41 -999.99    1.41    0.00000     0.00  LINEAR    2.85325E-01  -154.61    0.00000E+00     0.00
 -105.00     0.00       1.79 -999.99    1.79    0.00000     0.00  LINEAR    2.98220E-01  -154.65    0.00000E+00     0.00
 -100.00     0.00       2.07 -999.99    2.07    0.00000     0.00  LINEAR    3.07790E-01  -154.67    0.00000E+00     0.00
  -95.00     0.00       2.23 -999.99    2.23    0.00000     0.00  LINEAR    3.13682E-01  -154.69    0.00000E+00     0.00
  -90.00     0.00       2.29 -999.99    2.29    0.00000     0.00  LINEAR    3.15672E-01  -154.69    0.00000E+00     0.00
  -85.00     0.00       2.23 -999.99    2.23    0.00000     0.00  LINEAR    3.13682E-01  -154.69    0.00000E+00     0.00
  -80.00     0.00       2.07 -999.99    2.07    0.00000     0.00  LINEAR    3.07790E-01  -154.67    0.00000E+00     0.00
  -75.00     0.00       1.79 -999.99    1.79    0.00000     0.00  LINEAR    2.98220E-01  -154.65    0.00000E+00     0.00
  -70.00     0.00       1.41 -999.99    1.41    0.00000     0.00  LINEAR    2.85325E-01  -154.61    0.00000E+00     0.00
  -65.00     0.00       0.91 -999.99    0.91    0.00000     0.00  LINEAR    2.69559E-01  -154.57    0.00000E+00     0.00
  -60.00     0.00       0.31 -999.99    0.31    0.00000     0.00  LINEAR    2.51442E-01  -154.52    0.00000E+00     0.00
  -55.00     0.00      -0.41 -999.99   -0.41    0.00000     0.00  LINEAR    2.31522E-01  -154.47    0.00000E+00     0.00
  -50.00     0.00      -1.24 -999.99   -1.24    0.00000     0.00  LINEAR    2.10342E-01  -154.40    0.00000E+00     0.00
  -45.00     0.00      -2.20 -999.99   -2.20    0.00000     0.00  LINEAR    1.88402E-01  -154.34    0.00000E+00     0.00
  -40.00     0.00      -3.29 -999.99   -3.29    0.00000     0.00  LINEAR    1.66137E-01  -154.27    0.00000E+00     0.00
  -35.00     0.00      -4.54 -999.99   -4.54    0.00000     0.00  LINEAR    1.43902E-01  -154.20    0.00000E+00     0.00
  -30.00     0.00      -5.98 -999.99   -5.98    0.00000     0.00  LINEAR    1.21956E-01  -154.13    0.00000E+00     0.00
  -25.00     0.00      -7.66 -999.99   -7.66    0.00000     0.00  LINEAR    1.00465E-01  -154.07    0.00000E+00     0.00
  -20.00     0.00      -9.69 -999.99   -9.69    0.00000     0.00  LINEAR    7.95064E-02  -154.02    0.00000E+00     0.00
  -15.00     0.00     -12.27 -999.99  -12.27    0.00000     0.00  LINEAR    5.90760E-02  -153.97    0.00000E+00     0.00
  -10.00     0.00     -15.86 -999.99  -15.86    0.00000     0.00  LINEAR    3.91027E-02  -153.94    0.00000E+00     0.00
   -5.00     0.00     -21.92 -999.99  -21.92    0.00000     0.00  LINEAR    1.94634E-02  -153.91    0.00000E+00     0.00
    0.00     0.00    -999.99 -999.99 -999.99    0.00000     0.00            0.00000E+00     0.00    0.00000E+00     0.00
    5.00     0.00     -21.92 -999.99  -21.92    0.00000     0.00  LINEAR    1.94634E-02    26.09    0.00000E+00     0.00
   10.00     0.00     -15.86 -999.99  -15.86    0.00000     0.00  LINEAR    3.91027E-02    26.06    0.00000E+00     0.00
   15.00     0.00     -12.27 -999.99  -12.27    0.00000     0.00  LINEAR    5.90760E-02    26.03    0.00000E+00     0.00
   20.00     0.00      -9.69 -999.99   -9.69    0.00000     0.00  LINEAR    7.95064E-02    25.98    0.00000E+00     0.00
   25.00     0.00      -7.66 -999.99   -7.66    0.00000     0.00  LINEAR    1.00465E-01    25.93    0.00000E+00     0.00
   30.00     0.00      -5.98 -999.99   -5.98    0.00000     0.00  LINEAR    1.21956E-01    25.87    0.00000E+00     0.00
   35.00     0.00      -4.54 -999.99   -4.54    0.00000     0.00  LINEAR    1.43902E-01    25.80    0.00000E+00     0.00
   40.00     0.00      -3.29 -999.99   -3.29    0.00000     0.00  LINEAR    1.66137E-01    25.73    0.00000E+00     0.00
   45.00     0.00      -2.20 -999.99   -2.20    0.00000     0.00  LINEAR    1.88402E-01    25.66    0.00000E+00     0.00
   50.00     0.00      -1.24 -999.99   -1.24    0.00000     0.00  LINEAR    2.10342E-01    25.60    0.00000E+00     0.00
   55.00     0.00      -0.41 -999.99   -0.41    0.00000     0.00  LINEAR    2.31522E-01    25.53    0.00000E+00     0.00
   60.00     0.00       0.31 -999.99    0.31    0.00000     0.00  LINEAR    2.51442E-01    25.48    0.00000E+00     0.00
   65.00     0.00       0.91 -999.99    0.91    0.00000     0.00  LINEAR    2.69559E-01    25.43    0.00000E+00     0.00
   70.00     0.00       1.41 -999.99    1.41    0.00000     0.00  LINEAR    2.85325E-01    25.39    0.00000E+00     0.00
   75.00     0.00       1.79 -999.99    1.79    0.00000     0.00  LINEAR    2.98220E-01    25.35    0.00000E+00     0.00
   80.00     0.00       2.07 -999.99    2.07    0.00000     0.00  LINEAR    3.07790E-01    25.33    0.00000E+00     0.00
   85.00     0.00       2.23 -999.99    2.23    0.00000     0.00  LINEAR    3.13682E-01    25.31    0.00000E+00     0.00
   90.00     0.00       2.29 -999.99    2.29    0.00000     0.00  LINEAR    3.15672E-01    25.31    0.00000E+00     0.00
   95.00     0.00       2.23 -999.99    2.23    0.00000     0.00  LINEAR    3.13682E-01    25.31    0.00000E+00     0.00
  100.00     0.00       2.07 -999.99    2.07    0.00000     0.00  LINEAR    3.07790E-01    25.33    0.00000E+00     0.00
  105.00     0.00       1.79 -999.99    1.79    0.00000     0.00  LINEAR    2.98220E-01    25.35    0.00000E+00     0.00
  110.00     0.00       1.41 -999.99    1.41    0.00000     0.00  LINEAR    2.85325E-01    25.39    0.00000E+00     0.00
  115.00     0.00       0.91 -999.99    0.91    0.00000     0.00  LINEAR    2.69559E-01    25.43    0.00000E+00     0.00
  120.00     0.00       0.31 -999.99    0.31    0.00000     0.00  LINEAR    2.51442E-01    25.48    0.00000E+00     0.00
  125.00     0.00      -0.41 -999.99   -0.41    0.00000     0.00  LINEAR    2.31522E-01    25.53    0.00000E+00     0.00
  130.00     0.00      -1.24 -999.99   -1.24    0.00000     0.00  LINEAR    2.10342E-01    25.60    0.00000E+00     0.00
  135.00     0.00      -2.20 -999.99   -2.20    0.00000     0.00  LINEAR    1.88402E-01    25.66    0.00000E+00     0.00
  140.00     0.00      -3.29 -999.99   -3.29    0.00000     0.00  LINEAR    1.66137E-01    25.73    0.00000E+00     0.00
  145.00     0.00      -4.54 -999.99   -4.54    0.00000     0.00  LINEAR    1.43902E-01    25.80    0.00000E+00     0.00
  150.00     0.00      -5.98 -999.99   -5.98    0.00000     0.00  LINEAR    1.21956E-01    25.87    0.00000E+00     0.00
  155.00     0.00      -7.66 -999.99   -7.66    0.00000     0.00  LINEAR    1.00465E-01    25.93    0.00000E+00     0.00
  160.00     0.00      -9.69 -999.99   -9.69    0.00000     0.00  LINEAR    7.95064E-02    25.98    0.00000E+00     0.00
  165.00     0.00     -12.27 -999.99  -12.27    0.00000     0.00  LINEAR    5.90760E-02    26.03    0.00000E+00     0.00
  170.00     0.00     -15.86 -999.99  -15.86    0.00000     0.00  LINEAR    3.91027E-02    26.06    0.00000E+00     0.00
  175.00     0.00     -21.92 -999.99  -21.92    0.00000     0.00  LINEAR    1.94634E-02    26.09    0.00000E+00     0.00
  180.00     0.00    -999.99 -999.99 -999.99    0.00000     0.00            2.27297E-12  -153.91    0.00000E+00     0.00




                                 - - - - - - FREQUENCY - - - - - -

                                    FREQUENCY= 7.2000E+02 MHZ
                                    WAVELENGTH= 4.1639E-01 METERS




                    APPROXIMATE INTEGRATION EMPLOYED FOR SEGMENTS MORE THAN   1.000 WAVELENGTHS APART

                    THE EXTENDED THIN WIRE KERNEL WILL BE USED



                               - - - STRUCTURE IMPEDANCE LOADING - - -

                                   THIS STRUCTURE IS NOT LOADED



                                  - - - ANTENNA ENVIRONMENT - - -

                                            FREE SPACE



                                - - - MATRIX TIMING - - -

                        FILL=    0.000 SEC.,  FACTOR=    0.000 SEC.



                                          - - - ANTENNA INPUT PARAMETERS - - -

   TAG   SEG.    VOLTAGE (VOLTS)         CURRENT (AMPS)         IMPEDANCE (OHMS)        ADMITTANCE (MHOS)      POWER
   NO.   NO.    REAL        IMAG.       REAL        IMAG.       REAL        IMAG.       REAL        IMAG.     (WATTS)
     1     5 1.00000E+00 0.00000E+00 1.75259E-03-3.31561E-03 1.24608E+02 2.35737E+02 1.75259E-03-3.31561E-03 8.76296E-04



                             - - - CURRENTS AND LOCATION - - -

                                 DISTANCES IN WAVELENGTHS


  SEG.  TAG    COORD. OF SEG. CENTER     SEG.            - - - CURRENT (AMPS) - - -
  NO.   NO.     X        Y        Z      LENGTH     REAL        IMAG.       MAG.        PHASE
     1    1   0.0000   0.0000  -0.2562  0.06404   3.2255E-04 -8.6234E-04  9.2069E-04  -69.492
     2    1   0.0000   0.0000  -0.1921  0.06404   8.8851E-04 -2.2353E-03  2.4054E-03  -68.323
     3    1   0.0000   0.0000  -0.1281  0.06404   1.3460E-03 -3.1449E-03  3.4209E-03  -66.829
     4    1   0.0000   0.0000  -0.0640  0.06404   1.6474E-03 -3.4821E-03  3.8521E-03  -64.682
     5    1   0.0000   0.0000   0.0000  0.06404   1.7526E-03 -3.3156E-03  3.7503E-03  -62.140
     6    1   0.0000   0.0000   0.0640  0.06404   1.6474E-03 -3.4821E-03  3.8521E-03  -64.682
     7    1   0.0000   0.0000   0.1281  0.06404   1.3460E-03 -3.1449E-03  3.4209E-03  -66.829
     8    1   0.0000   0.0000   0.1921  0.06404   8.8851E-04 -2.2353E-03  2.4054E-03  -68.323
     9    1   0.0000   0.0000   0.2562  0.06404   3.2255E-04 -8.6234E-04  9.2069E-04  -69.492



                                        - - - POWER BUDGET - - -

                                           INPUT POWER   = 8.7630E-04 WATTS
                                           RADIATED POWER= 8.7630E-04 WATTS
                                           STRUCTURE LOSS= 0.0000E+00 WATTS
                                           NETWORK LOSS  = 0.0000E+00 WATTS
                                           EFFICIENCY    = 100.00 PERCENT



                                                - - - RADIATION PATTERNS - - -

  - - ANGLES - -           - POWER GAINS -       - - - POLARIZATION - - -    - - - E(THETA) - - -    - - - E(PHI) - - -
  THETA     PHI        VERT.   HOR.    TOTAL      AXIAL     TILT   SENSE     MAGNITUDE    PHASE      MAGNITUDE    PHASE 
 DEGREES  DEGREES       DB      DB      DB        RATIO     DEG.              VOLTS/M    DEGREES      VOLTS/M    DEGREES
 -180.00     0.00    -999.99 -999.99 -999.99    0.00000     0.00            2.12415E-12    24.93    0.00000E+00     0.00
 -175.00     0.00     -22.01 -999.99  -22.01    0.00000     0.00  LINEAR    1.81910E-02  -155.08    0.00000E+00     0.00
 -170.00     0.00     -15.95 -999.99  -15.95    0.00000     0.00  LINEAR    3.65585E-02  -155.10    0.00000E+00     0.00
 -165.00     0.00     -12.36 -999.99  -12.36    0.00000     0.00  LINEAR    5.52616E-02  -155.14    0.00000E+00     0.00
 -160.00     0.00      -9.77 -999.99   -9.77    0.00000     0.00  LINEAR    7.44259E-02  -155.19    0.00000E+00     0.00
 -155.00     0.00      -7.73 -999.99   -7.73    0.00000     0.00  LINEAR    9.41265E-02  -155.25    0.00000E+00     0.00
 -150.00     0.00      -6.04 -999.99   -6.04    0.00000     0.00  LINEAR    1.14373E-01  -155.32    0.00000E+00     0.00
 -145.00     0.00      -4.59 -999.99   -4.59    0.00000     0.00  LINEAR    1.35099E-01  -155.39    0.00000E+00     0.00
 -140.00     0.00      -3.33 -999.99   -3.33    0.00000     0.00  LINEAR    1.56147E-01  -155.46    0.00000E+00     0.00
 -135.00     0.00      -2.23 -999.99   -2.23    0.00000     0.00  LINEAR    1.77270E-01  -155.54    0.00000E+00     0.00
 -130.00     0.00      -1.27 -999.99   -1.27    0.00000     0.00  LINEAR    1.98130E-01  -155.61    0.00000E+00     0.00
 -125.00     0.00      -0.42 -999.99   -0.42    0.00000     0.00  LINEAR    2.18307E-01  -155.68    0.00000E+00     0.00
 -120.00     0.00       0.30 -999.99    0.30    0.00000     0.00  LINEAR    2.37315E-01  -155.74    0.00000E+00     0.00
 -115.00     0.00       0.91 -999.99    0.91    0.00000     0.00  LINEAR    2.54628E-01  -155.79    0.00000E+00     0.00
 -110.00     0.00       1.41 -999.99    1.41    0.00000     0.00  LINEAR    2.69714E-01  -155.84    0.00000E+00     0.00
 -105.00     0.00       1.80 -999.99    1.80    0.00000     0.00  LINEAR    2.82066E-01  -155.87    0.00000E+00     0.00
 -100.00     0.00       2.08 -999.99    2.08    0.00000     0.00  LINEAR    2.91240E-01  -155.90    0.00000E+00     0.00
  -95.00     0.00       2.25 -999.99    2.25    0.00000     0.00  LINEAR    2.96890E-01  -155.91    0.00000E+00     0.00
  -90.00     0.00       2.30 -999.99    2.30    0.00000     0.00  LINEAR    2.98799E-01  -155.92    0.00000E+00     0.00
  -85.00     0.00       2.25 -999.99    2.25    0.00000     0.00  LINEAR    2.96890E-01  -155.91    0.00000E+00     0.00
  -80.00     0.00       2.08 -999.99    2.08    0.00000     0.00  LINEAR    2.91240E-01  -155.90    0.00000E+00     0.00
  -75.00     0.00       1.80 -999.99    1.80    0.00000     0.00  LINEAR    2.82066E-01  -155.87    0.00000E+00     0.00
  -70.00     0.00       1.41 -999.99    1.41    0.00000     0.00  LINEAR    2.69714E-01  -155.84    0.00000E+00     0.00
  -65.00     0.00       0.91 -999.99    0.91    0.00000     0.00  LINEAR    2.54628E-01  -155.79    0.00000E+00     0.00
  -60.00     0.00       0.30 -999.99    0.30    0.00000     0.00  LINEAR    2.37315E-01  -155.74    0.00000E+00     0.00
  -55.00     0.00      -0.42 -999.99   -0.42    0.00000     0.00  LINEAR    2.18307E-01  -155.68    0.00000E+00     0.00
  -50.00     0.00      -1.27 -999.99   -1.27    0.00000     0.00  LINEAR    1.98130E-01  -155.61    0.00000E+00     0.00
  -45.00     0.00      -2.23 -999.99   -2.23    0.00000     0.00  LINEAR    1.77270E-01  -155.54    0.00000E+00     0.00
  -40.00     0.00      -3.33 -999.99   -3.33    0.00000     0.00  LINEAR    1.56147E-01  -155.46    0.00000E+00     0.00
  -35.00     0.00      -4.59 -999.99   -4.59    0.00000     0.00  LINEAR    1.35099E-01  -155.39    0.00000E+00     0.00
  -30.00     0.00      -6.04 -999.99   -6.04    0.00000     0.00  LINEAR    1.14373E-01  -155.32    0.00000E+00     0.00
  -25.00     0.00      -7.73 -999.99   -7.73    0.00000     0.00  LINEAR    9.41265E-02  -155.25    0.00000E+00     0.00
  -20.00     0.00      -9.77 -999.99   -9.77    0.00000     0.00  LINEAR    7.44259E-02  -155.19    0.00000E+00     0.00
  -15.00     0.00     -12.36 -999.99  -12.36    0.00000     0.00  LINEAR    5.52616E-02  -155.14    0.00000E+00     0.00
  -10.00     0.00     -15.95 -999.99  -15.95    0.00000     0.00  LINEAR    3.65585E-02  -155.10    0.00000E+00     0.00
   -5.00     0.00     -22.01 -999.99  -22.01    0.00000     0.00  LINEAR    1.81910E-02  -155.08    0.00000E+00     0.00
    0.00     0.00    -999.99 -999.99 -999.99    0.00000     0.00            0.00000E+00     0.00    0.00000E+00     0.00
    5.00     0.00     -22.01 -999.99  -22.01    0.00000     0.00  LINEAR    1.81910E-02    24.92    0.00000E+00     0.00
   10.00     0.00     -15.95 -999.99  -15.95    0.00000     0.00  LINEAR    3.65585E-02    24.90    0.00000E+00     0.00
   15.00     0.00     -12.36 -999.99  -12.36    0.00000     0.00  LINEAR    5.52616E-02    24.86    0.00000E+00     0.00
   20.00     0.00      -9.77 -999.99   -9.77    0.00000     0.00  LINEAR    7.44259E-02    24.81    0.00000E+00     0.00
   25.00     0.00      -7.73 -999.99   -7.73    0.00000     0.00  LINEAR    9.41265E-02    24.75    0.00000E+00     0.00
   30.00     0.00      -6.04 -999.99   -6.04    0.00000     0.00  LINEAR    1.14373E-01    24.68    0.00000E+00     0.00
   35.00     0.00      -4.59 -999.99   -4.59    0.00000     0.00  LINEAR    1.35099E-01    24.61    0.00000E+00     0.00
   40.00     0.00      -3.33 -999.99   -3.33    0.00000     0.00  LINEAR    1.56147E-01    24.54    0.00000E+00     0.00
   45.00     0.00      -2.23 -999.99   -2.23    0.00000     0.00  LINEAR    1.77270E-01    24.46    0.00000E+00     0.00
   50.00     0.00      -1.27 -999.99   -1.27    0.00000     0.00  LINEAR    1.98130E-01    24.39    0.00000E+00     0.00
   55.00     0.00      -0.42 -999.99   -0.42    0.00000     0.00  LINEAR    2.18307E-01    24.32    0.00000E+00     0.00
   60.00     0.00       0.30 -999.99    0.30    0.00000     0.00  LINEAR    2.37315E-01    24.26    0.00000E+00     0.00
   65.00     0.00       0.91 -999.99    0.91    0.00000     0.00  LINEAR    2.54628E-01    24.21    0.00000E+00     0.00
   70.00     0.00       1.41 -999.99    1.41    0.00000     0.00  LINEAR    2.69714E-01    24.16    0.00000E+00     0.00
   75.00     0.00       1.80 -999.99    1.80    0.00000     0.00  LINEAR    2.82066E-01    24.13    0.00000E+00     0.00
   80.00     0.00       2.08 -999.99    2.08    0.00000     0.00  LINEAR    2.91240E-01    24.10    0.00000E+00     0.00
   85.00     0.00       2.25 -999.99    2.25    0.00000     0.00  LINEAR    2.96890E-01    24.09    0.00000E+00     0.00
   90.00     0.00       2.30 -999.99    2.30    0.00000     0.00  LINEAR    2.98799E-01    24.08    0.00000E+00     0.00
   95.00     0.00       2.25 -999.99    2.25    0.00000     0.00  LINEAR    2.96890E-01    24.09    0.00000E+00     0.00
  100.00     0.00       2.08 -999.99    2.08    0.00000     0.00  LINEAR    2.91240E-01    24.10    0.00000E+00     0.00
  105.00     0.00       1.80 -999.99    1.80    0.00000     0.00  LINEAR    2.82066E-01    24.13    0.00000E+00     0.00
  110.00     0.00       1.41 -999.99    1.41    0.00000     0.00  LINEAR    2.69714E-01    24.16    0.00000E+00     0.00
  115.00     0.00       0.91 -999.99    0.91    0.00000     0.00  LINEAR    2.54628E-01    24.21    0.00000E+00     0.00
  120.00     0.00       0.30 -999.99    0.30    0.00000     0.00  LINEAR    2.37315E-01    24.26    0.00000E+00     0.00
  125.00     0.00      -0.42 -999.99   -0.42    0.00000     0.00  LINEAR    2.18307E-01    24.32    0.00000E+00     0.00
  130.00     0.00      -1.27 -999.99   -1.27    0.00000     0.00  LINEAR    1.98130E-01    24.39    0.00000E+00     0.00
  135.00     0.00      -2.23 -999.99   -2.23    0.00000     0.00  LINEAR    1.77270E-01    24.46    0.00000E+00     0.00
  140.00     0.00      -3.33 -999.99   -3.33    0.00000     0.00  LINEAR    1.56147E-01    24.54    0.00000E+00     0.00
  145.00     0.00      -4.59 -999.99   -4.59    0.00000     0.00  LINEAR    1.35099E-01    24.61    0.00000E+00     0.00
  150.00     0.00      -6.04 -999.99   -6.04    0.00000     0.00  LINEAR    1.14373E-01    24.68    0.00000E+00     0.00
  155.00     0.00      -7.73 -999.99   -7.73    0.00000     0.00  LINEAR    9.41265E-02    24.75    0.00000E+00     0.00
  160.00     0.00      -9.77 -999.99   -9.77    0.00000     0.00  LINEAR    7.44259E-02    24.81    0.00000E+00     0.00
  165.00     0.00     -12.36 -999.99  -12.36    0.00000     0.00  LINEAR    5.52616E-02    24.86    0.00000E+00     0.00
  170.00     0.00     -15.95 -999.99  -15.95    0.00000     0.00  LINEAR    3.65585E-02    24.90    0.00000E+00     0.00
  175.00     0.00     -22.01 -999.99  -22.01    0.00000     0.00  LINEAR    1.81910E-02    24.92    0.00000E+00     0.00
  180.00     0.00    -999.99 -999.99 -999.99    0.00000     0.00            2.12415E-12  -155.07    0.00000E+00     0.00
 ***** DATA CARD NO.  8   EN   0    73     1  1000 -1.80000E+02  0.00000E+00  5.00000E+00  0.00000E+00  0.00000E+00  0.00000E+00

 RUN TIME =     0.016
