1



                                 *********************************************

                                    NUMERICAL ELECTROMAGNETICS CODE (NEC-2D)

                                 *********************************************




                                     - - - - COMMENTS - - - -


                          Antena dipolo com freqÍncia de 600MHz                                      
                                                                                                     
                                                                                                     
                                                                                                     




                                 - - - STRUCTURE SPECIFICATION - - -

                                     COORDINATES MUST BE INPUT IN
                                     METERS OR BE SCALED TO METERS
                                     BEFORE STRUCTURE INPUT IS ENDED


  WIRE                                                                               NO. OF    FIRST  LAST     TAG
  NO.        X1         Y1         Z1          X2         Y2         Z2      RADIUS   SEG.     SEG.   SEG.     NO.
     1    0.00000    0.00000   -0.12000     0.00000    0.00000    0.12000    0.00010      9        1     9       1

   TOTAL SEGMENTS USED=    9     NO. SEG. IN A SYMMETRIC CELL=    9     SYMMETRY FLAG=  0


         - MULTIPLE WIRE JUNCTIONS -
 JUNCTION    SEGMENTS  (- FOR END 1, + FOR END 2)
  NONE




                                 - - - - SEGMENTATION DATA - - - -

                                        COORDINATES IN METERS

                         I+ AND I- INDICATE THE SEGMENTS BEFORE AND AFTER I


  SEG.   COORDINATES OF SEG. CENTER     SEG.     ORIENTATION ANGLES    WIRE    CONNECTION DATA   TAG
  NO.       X         Y         Z       LENGTH     ALPHA     BETA      RADIUS    I-   I    I+    NO.
     1   0.00000   0.00000  -0.10667   0.02667   90.00000   0.00000   0.00010     0    1    2      1
     2   0.00000   0.00000  -0.08000   0.02667   90.00000   0.00000   0.00010     1    2    3      1
     3   0.00000   0.00000  -0.05333   0.02667   90.00000   0.00000   0.00010     2    3    4      1
     4   0.00000   0.00000  -0.02667   0.02667   90.00000   0.00000   0.00010     3    4    5      1
     5   0.00000   0.00000   0.00000   0.02667   90.00000   0.00000   0.00010     4    5    6      1
     6   0.00000   0.00000   0.02667   0.02667   90.00000   0.00000   0.00010     5    6    7      1
     7   0.00000   0.00000   0.05333   0.02667   90.00000   0.00000   0.00010     6    7    8      1
     8   0.00000   0.00000   0.08000   0.02667   90.00000   0.00000   0.00010     7    8    9      1
     9   0.00000   0.00000   0.10667   0.02667   90.00000   0.00000   0.00010     8    9    0      1






 ***** DATA CARD NO.  1   GN  -1     0     0     0  0.00000E+00  0.00000E+00  0.00000E+00  0.00000E+00  0.00000E+00  0.00000E+00
 ***** DATA CARD NO.  2   EK   0     0     0     0  0.00000E+00  0.00000E+00  0.00000E+00  0.00000E+00  0.00000E+00  0.00000E+00
 ***** DATA CARD NO.  3   EX   0     1     5     0  1.00000E+00  0.00000E+00  0.00000E+00  0.00000E+00  0.00000E+00  0.00000E+00
 ***** DATA CARD NO.  4   FR   0     0     0     0  6.00000E+02  0.00000E+00  0.00000E+00  0.00000E+00  0.00000E+00  0.00000E+00
 ***** DATA CARD NO.  5   NE   0   101   101     1 -1.00000E+00 -2.00000E+00  0.00000E+00  5.00000E-02  4.00000E-02  1.00000E+00




                                 - - - - - - FREQUENCY - - - - - -

                                    FREQUENCY= 6.0000E+02 MHZ
                                    WAVELENGTH= 4.9967E-01 METERS




                    APPROXIMATE INTEGRATION EMPLOYED FOR SEGMENTS MORE THAN   1.000 WAVELENGTHS APART

                    THE EXTENDED THIN WIRE KERNEL WILL BE USED



                               - - - STRUCTURE IMPEDANCE LOADING - - -

                                   THIS STRUCTURE IS NOT LOADED



                                  - - - ANTENNA ENVIRONMENT - - -

                                            FREE SPACE



                                - - - MATRIX TIMING - - -

                        FILL=    0.000 SEC.,  FACTOR=    0.000 SEC.



                                          - - - ANTENNA INPUT PARAMETERS - - -

   TAG   SEG.    VOLTAGE (VOLTS)         CURRENT (AMPS)         IMPEDANCE (OHMS)        ADMITTANCE (MHOS)      POWER
   NO.   NO.    REAL        IMAG.       REAL        IMAG.       REAL        IMAG.       REAL        IMAG.     (WATTS)
     1     5 1.00000E+00 0.00000E+00 1.39823E-02 8.47389E-04 7.12575E+01-4.31853E+00 1.39823E-02 8.47389E-04 6.99113E-03



                             - - - CURRENTS AND LOCATION - - -

                                 DISTANCES IN WAVELENGTHS


  SEG.  TAG    COORD. OF SEG. CENTER     SEG.            - - - CURRENT (AMPS) - - -
  NO.   NO.     X        Y        Z      LENGTH     REAL        IMAG.       MAG.        PHASE
     1    1   0.0000   0.0000  -0.2135  0.05337   2.7805E-03 -4.2205E-05  2.7808E-03   -0.870
     2    1   0.0000   0.0000  -0.1601  0.05337   7.3969E-03 -7.8850E-06  7.3969E-03   -0.061
     3    1   0.0000   0.0000  -0.1067  0.05337   1.0940E-02  1.7346E-04  1.0941E-02    0.908
     4    1   0.0000   0.0000  -0.0534  0.05337   1.3203E-02  5.0021E-04  1.3213E-02    2.170
     5    1   0.0000   0.0000   0.0000  0.05337   1.3982E-02  8.4739E-04  1.4008E-02    3.468
     6    1   0.0000   0.0000   0.0534  0.05337   1.3203E-02  5.0021E-04  1.3213E-02    2.170
     7    1   0.0000   0.0000   0.1067  0.05337   1.0940E-02  1.7346E-04  1.0941E-02    0.908
     8    1   0.0000   0.0000   0.1601  0.05337   7.3969E-03 -7.8850E-06  7.3969E-03   -0.061
     9    1   0.0000   0.0000   0.2135  0.05337   2.7805E-03 -4.2205E-05  2.7808E-03   -0.870



                                        - - - POWER BUDGET - - -

                                           INPUT POWER   = 6.9911E-03 WATTS
                                           RADIATED POWER= 6.9911E-03 WATTS
                                           STRUCTURE LOSS= 0.0000E+00 WATTS
                                           NETWORK LOSS  = 0.0000E+00 WATTS
                                           EFFICIENCY    = 100.00 PERCENT



                                   - - - NEAR ELECTRIC FIELDS - - -

            -  LOCATION  -                     -  EX  -               -  EY  -               -  EZ  -
        X          Y          Z          MAGNITUDE   PHASE      MAGNITUDE   PHASE      MAGNITUDE   PHASE
      METERS     METERS     METERS        VOLTS/M   DEGREES      VOLTS/M   DEGREES      VOLTS/M   DEGREES
      -1.0000    -2.0000     0.0000     1.0788E-11  -112.23    2.1576E-11  -112.23    3.6876E-01    97.93
      -0.9500    -2.0000     0.0000     1.0556E-11   -96.52    2.2224E-11   -96.52    3.7240E-01   113.69
      -0.9000    -2.0000     0.0000     1.0291E-11   -81.46    2.2868E-11   -81.46    3.7595E-01   128.78
      -0.8500    -2.0000     0.0000     9.9905E-12   -67.09    2.3507E-11   -67.09    3.7940E-01   143.20
      -0.8000    -2.0000     0.0000     9.6549E-12   -53.42    2.4137E-11   -53.42    3.8275E-01   156.91
      -0.7500    -2.0000     0.0000     9.2832E-12   -40.47    2.4755E-11   -40.47    3.8598E-01   169.91
      -0.7000    -2.0000     0.0000     8.8752E-12   -28.25    2.5358E-11   -28.25    3.8907E-01  -177.84
      -0.6500    -2.0000     0.0000     8.4308E-12   -16.79    2.5941E-11   -16.79    3.9202E-01  -166.34
      -0.6000    -2.0000     0.0000     7.9503E-12    -6.10    2.6501E-11    -6.10    3.9481E-01  -155.61
      -0.5500    -2.0000     0.0000     7.4345E-12     3.81    2.7034E-11     3.81    3.9742E-01  -145.68
      -0.5000    -2.0000     0.0000     6.8843E-12    12.90    2.7537E-11    12.90    3.9986E-01  -136.55
      -0.4500    -2.0000     0.0000     6.3013E-12    21.18    2.8006E-11    21.18    4.0211E-01  -128.24
      -0.4000    -2.0000     0.0000     5.6873E-12    28.63    2.8436E-11    28.63    4.0415E-01  -120.77
      -0.3500    -2.0000     0.0000     5.0445E-12    35.24    2.8826E-11    35.24    4.0598E-01  -114.14
      -0.3000    -2.0000     0.0000     4.3755E-12    40.98    2.9170E-11    40.98    4.0758E-01  -108.38
      -0.2500    -2.0000     0.0000     3.6834E-12    45.86    2.9467E-11    45.86    4.0895E-01  -103.48
      -0.2000    -2.0000     0.0000     2.9714E-12    49.87    2.9714E-11    49.87    4.1008E-01   -99.46
      -0.1500    -2.0000     0.0000     2.2431E-12    52.99    2.9908E-11    52.99    4.1097E-01   -96.33
      -0.1000    -2.0000     0.0000     1.5024E-12    55.23    3.0048E-11    55.23    4.1161E-01   -94.08
      -0.0500    -2.0000     0.0000     7.5331E-13    56.57    3.0132E-11    56.57    4.1199E-01   -92.74
       0.0000    -2.0000     0.0000     4.8135E-27  -122.98    3.0161E-11    57.02    4.1212E-01   -92.29
       0.0500    -2.0000     0.0000     7.5331E-13  -123.43    3.0132E-11    56.57    4.1199E-01   -92.74
       0.1000    -2.0000     0.0000     1.5024E-12  -124.77    3.0048E-11    55.23    4.1161E-01   -94.08
       0.1500    -2.0000     0.0000     2.2431E-12  -127.01    2.9908E-11    52.99    4.1097E-01   -96.33
       0.2000    -2.0000     0.0000     2.9714E-12  -130.13    2.9714E-11    49.87    4.1008E-01   -99.46
       0.2500    -2.0000     0.0000     3.6834E-12  -134.14    2.9467E-11    45.86    4.0895E-01  -103.48
       0.3000    -2.0000     0.0000     4.3755E-12  -139.02    2.9170E-11    40.98    4.0758E-01  -108.38
       0.3500    -2.0000     0.0000     5.0445E-12  -144.76    2.8826E-11    35.24    4.0598E-01  -114.14
       0.4000    -2.0000     0.0000     5.6873E-12  -151.37    2.8436E-11    28.63    4.0415E-01  -120.77
       0.4500    -2.0000     0.0000     6.3013E-12  -158.82    2.8006E-11    21.18    4.0211E-01  -128.24
       0.5000    -2.0000     0.0000     6.8843E-12  -167.10    2.7537E-11    12.90    3.9986E-01  -136.55
       0.5500    -2.0000     0.0000     7.4345E-12  -176.19    2.7034E-11     3.81    3.9742E-01  -145.68
       0.6000    -2.0000     0.0000     7.9503E-12   173.90    2.6501E-11    -6.10    3.9481E-01  -155.61
       0.6500    -2.0000     0.0000     8.4308E-12   163.21    2.5941E-11   -16.79    3.9202E-01  -166.34
       0.7000    -2.0000     0.0000     8.8752E-12   151.75    2.5358E-11   -28.25    3.8907E-01  -177.84
       0.7500    -2.0000     0.0000     9.2832E-12   139.53    2.4755E-11   -40.47    3.8598E-01   169.91
       0.8000    -2.0000     0.0000     9.6549E-12   126.58    2.4137E-11   -53.42    3.8275E-01   156.91
       0.8500    -2.0000     0.0000     9.9905E-12   112.91    2.3507E-11   -67.09    3.7940E-01   143.20
       0.9000    -2.0000     0.0000     1.0291E-11    98.54    2.2868E-11   -81.46    3.7595E-01   128.78
       0.9500    -2.0000     0.0000     1.0556E-11    83.48    2.2224E-11   -96.52    3.7240E-01   113.69
       1.0000    -2.0000     0.0000     1.0788E-11    67.77    2.1576E-11  -112.23    3.6876E-01    97.93
       1.0500    -2.0000     0.0000     1.0988E-11    51.41    2.0929E-11  -128.59    3.6505E-01    81.52
       1.1000    -2.0000     0.0000     1.1156E-11    34.43    2.0284E-11  -145.57    3.6128E-01    64.49
       1.1500    -2.0000     0.0000     1.1295E-11    16.84    1.9644E-11  -163.16    3.5745E-01    46.86
       1.2000    -2.0000     0.0000     1.1406E-11    -1.33    1.9011E-11   178.67    3.5358E-01    28.64
       1.2500    -2.0000     0.0000     1.1491E-11   -20.07    1.8386E-11   159.93    3.4968E-01     9.85
       1.3000    -2.0000     0.0000     1.1551E-11   -39.36    1.7771E-11   140.64    3.4575E-01    -9.49
       1.3500    -2.0000     0.0000     1.1588E-11   -59.18    1.7168E-11   120.82    3.4180E-01   -29.36
       1.4000    -2.0000     0.0000     1.1604E-11   -79.51    1.6577E-11   100.49    3.3785E-01   -49.74
       1.4500    -2.0000     0.0000     1.1599E-11  -100.34    1.5999E-11    79.66    3.3389E-01   -70.61
       1.5000    -2.0000     0.0000     1.1577E-11  -121.64    1.5436E-11    58.36    3.2994E-01   -91.97
       1.5500    -2.0000     0.0000     1.1538E-11  -143.41    1.4887E-11    36.59    3.2599E-01  -113.78
       1.6000    -2.0000     0.0000     1.1483E-11  -165.62    1.4354E-11    14.38    3.2207E-01  -136.04
       1.6500    -2.0000     0.0000     1.1415E-11   171.74    1.3836E-11    -8.26    3.1816E-01  -158.73
       1.7000    -2.0000     0.0000     1.1334E-11   148.68    1.3335E-11   -31.32    3.1428E-01   178.16
       1.7500    -2.0000     0.0000     1.1243E-11   125.23    1.2849E-11   -54.77    3.1042E-01   154.66
       1.8000    -2.0000     0.0000     1.1141E-11   101.39    1.2379E-11   -78.61    3.0660E-01   130.78
       1.8500    -2.0000     0.0000     1.1031E-11    77.18    1.1925E-11  -102.82    3.0282E-01   106.52
       1.9000    -2.0000     0.0000     1.0912E-11    52.62    1.1487E-11  -127.38    2.9907E-01    81.91
       1.9500    -2.0000     0.0000     1.0788E-11    27.71    1.1064E-11  -152.29    2.9537E-01    56.95
       2.0000    -2.0000     0.0000     1.0657E-11     2.46    1.0657E-11  -177.54    2.9171E-01    31.67
       2.0500    -2.0000     0.0000     1.0521E-11   -23.10    1.0264E-11   156.90    2.8809E-01     6.06
       2.1000    -2.0000     0.0000     1.0381E-11   -48.96    9.8867E-12   131.04    2.8452E-01   -19.85
       2.1500    -2.0000     0.0000     1.0238E-11   -75.13    9.5233E-12   104.87    2.8100E-01   -46.06
       2.2000    -2.0000     0.0000     1.0091E-11  -101.58    9.1738E-12    78.42    2.7753E-01   -72.55
       2.2500    -2.0000     0.0000     9.9426E-12  -128.30    8.8379E-12    51.70    2.7411E-01   -99.32
       2.3000    -2.0000     0.0000     9.7924E-12  -155.30    8.5151E-12    24.70    2.7074E-01  -126.35
       2.3500    -2.0000     0.0000     9.6409E-12   177.46    8.2050E-12    -2.54    2.6742E-01  -153.64
       2.4000    -2.0000     0.0000     9.4887E-12   149.97    7.9072E-12   -30.03    2.6415E-01   178.83
       2.4500    -2.0000     0.0000     9.3361E-12   122.24    7.6213E-12   -57.76    2.6093E-01   151.06
       2.5000    -2.0000     0.0000     9.1835E-12    94.28    7.3468E-12   -85.72    2.5777E-01   123.06
       2.5500    -2.0000     0.0000     9.0313E-12    66.10    7.0833E-12  -113.90    2.5466E-01    94.84
       2.6000    -2.0000     0.0000     8.8797E-12    37.71    6.8305E-12  -142.29    2.5160E-01    66.41
       2.6500    -2.0000     0.0000     8.7289E-12     9.11    6.5879E-12  -170.89    2.4859E-01    37.78
       2.7000    -2.0000     0.0000     8.5793E-12   -19.68    6.3550E-12   160.32    2.4563E-01     8.95
       2.7500    -2.0000     0.0000     8.4310E-12   -48.67    6.1316E-12   131.33    2.4272E-01   -20.07
       2.8000    -2.0000     0.0000     8.2841E-12   -77.84    5.9172E-12   102.16    2.3986E-01   -49.28
       2.8500    -2.0000     0.0000     8.1389E-12  -107.19    5.7115E-12    72.81    2.3706E-01   -78.66
       2.9000    -2.0000     0.0000     7.9955E-12  -136.70    5.5141E-12    43.30    2.3430E-01  -108.22
       2.9500    -2.0000     0.0000     7.8539E-12  -166.39    5.3247E-12    13.61    2.3159E-01  -137.93
       3.0000    -2.0000     0.0000     7.7143E-12   163.77    5.1429E-12   -16.23    2.2893E-01  -167.81
       3.0500    -2.0000     0.0000     7.5768E-12   133.77    4.9684E-12   -46.23    2.2631E-01   162.16
       3.1000    -2.0000     0.0000     7.4414E-12   103.62    4.8009E-12   -76.38    2.2374E-01   131.98
       3.1500    -2.0000     0.0000     7.3082E-12    73.32    4.6401E-12  -106.68    2.2122E-01   101.65
       3.2000    -2.0000     0.0000     7.1772E-12    42.89    4.4857E-12  -137.11    2.1874E-01    71.19
       3.2500    -2.0000     0.0000     7.0484E-12    12.32    4.3375E-12  -167.68    2.1631E-01    40.59
       3.3000    -2.0000     0.0000     6.9220E-12   -18.38    4.1951E-12   161.62    2.1392E-01     9.86
       3.3500    -2.0000     0.0000     6.7978E-12   -49.20    4.0584E-12   130.80    2.1158E-01   -20.99
       3.4000    -2.0000     0.0000     6.6759E-12   -80.15    3.9270E-12    99.85    2.0927E-01   -51.97
       3.4500    -2.0000     0.0000     6.5564E-12  -111.21    3.8008E-12    68.79    2.0701E-01   -83.06
       3.5000    -2.0000     0.0000     6.4391E-12  -142.39    3.6795E-12    37.61    2.0478E-01  -114.27
       3.5500    -2.0000     0.0000     6.3241E-12  -173.68    3.5629E-12     6.32    2.0260E-01  -145.59
       3.6000    -2.0000     0.0000     6.2114E-12   154.92    3.4508E-12   -25.08    2.0046E-01  -177.01
       3.6500    -2.0000     0.0000     6.1010E-12   123.42    3.3430E-12   -56.58    1.9835E-01   151.46
       3.7000    -2.0000     0.0000     5.9928E-12    91.82    3.2394E-12   -88.18    1.9628E-01   119.84
       3.7500    -2.0000     0.0000     5.8868E-12    60.12    3.1396E-12  -119.88    1.9425E-01    88.11
       3.8000    -2.0000     0.0000     5.7830E-12    28.32    3.0437E-12  -151.68    1.9225E-01    56.29
       3.8500    -2.0000     0.0000     5.6814E-12    -3.56    2.9514E-12   176.44    1.9029E-01    24.38
       3.9000    -2.0000     0.0000     5.5818E-12   -35.54    2.8625E-12   144.46    1.8836E-01    -7.62
       3.9500    -2.0000     0.0000     5.4844E-12   -67.60    2.7769E-12   112.40    1.8647E-01   -39.70
       4.0000    -2.0000     0.0000     5.3890E-12   -99.74    2.6945E-12    80.26    1.8461E-01   -71.87
      -1.0000    -1.9600     0.0000     1.1322E-11   -86.62    2.2192E-11   -86.62    3.7472E-01   123.61
      -0.9500    -1.9600     0.0000     1.1090E-11   -70.65    2.2880E-11   -70.65    3.7854E-01   139.63
      -0.9000    -1.9600     0.0000     1.0821E-11   -55.35    2.3566E-11   -55.35    3.8227E-01   154.98
      -0.8500    -1.9600     0.0000     1.0515E-11   -40.74    2.4247E-11   -40.74    3.8591E-01   169.64
      -0.8000    -1.9600     0.0000     1.0172E-11   -26.83    2.4920E-11   -26.83    3.8943E-01  -176.41
      -0.7500    -1.9600     0.0000     9.7889E-12   -13.65    2.5582E-11   -13.65    3.9283E-01  -163.19
      -0.7000    -1.9600     0.0000     9.3668E-12    -1.21    2.6227E-11    -1.21    3.9609E-01  -150.72
      -0.6500    -1.9600     0.0000     8.9052E-12    10.46    2.6853E-11    10.46    3.9920E-01  -139.01
      -0.6000    -1.9600     0.0000     8.4044E-12    21.34    2.7454E-11    21.34    4.0215E-01  -128.08
      -0.5500    -1.9600     0.0000     7.8651E-12    31.43    2.8028E-11    31.43    4.0492E-01  -117.96
      -0.5000    -1.9600     0.0000     7.2882E-12    40.70    2.8570E-11    40.70    4.0750E-01  -108.66
      -0.4500    -1.9600     0.0000     6.6754E-12    49.14    2.9075E-11    49.14    4.0988E-01  -100.19
      -0.4000    -1.9600     0.0000     6.0285E-12    56.73    2.9540E-11    56.73    4.1204E-01   -92.57
      -0.3500    -1.9600     0.0000     5.3500E-12    63.46    2.9960E-11    63.46    4.1397E-01   -85.82
      -0.3000    -1.9600     0.0000     4.6428E-12    69.32    3.0333E-11    69.32    4.1568E-01   -79.94
      -0.2500    -1.9600     0.0000     3.9100E-12    74.30    3.0654E-11    74.30    4.1713E-01   -74.94
      -0.2000    -1.9600     0.0000     3.1552E-12    78.38    3.0921E-11    78.38    4.1833E-01   -70.84
      -0.1500    -1.9600     0.0000     2.3825E-12    81.57    3.1132E-11    81.57    4.1928E-01   -67.64
      -0.1000    -1.9600     0.0000     1.5961E-12    83.85    3.1283E-11    83.85    4.1995E-01   -65.36
      -0.0500    -1.9600     0.0000     8.0039E-13    85.22    3.1375E-11    85.22    4.2036E-01   -63.98
       0.0000    -1.9600     0.0000     5.1145E-27   -94.33    3.1406E-11    85.67    4.2050E-01   -63.52
       0.0500    -1.9600     0.0000     8.0039E-13   -94.78    3.1375E-11    85.22    4.2036E-01   -63.98
       0.1000    -1.9600     0.0000     1.5961E-12   -96.15    3.1283E-11    83.85    4.1995E-01   -65.36
       0.1500    -1.9600     0.0000     2.3825E-12   -98.43    3.1132E-11    81.57    4.1928E-01   -67.64
       0.2000    -1.9600     0.0000     3.1552E-12  -101.62    3.0921E-11    78.38    4.1833E-01   -70.84
       0.2500    -1.9600     0.0000     3.9100E-12  -105.70    3.0654E-11    74.30    4.1713E-01   -74.94
       0.3000    -1.9600     0.0000     4.6428E-12  -110.68    3.0333E-11    69.32    4.1568E-01   -79.94
       0.3500    -1.9600     0.0000     5.3500E-12  -116.54    2.9960E-11    63.46    4.1397E-01   -85.82
       0.4000    -1.9600     0.0000     6.0285E-12  -123.27    2.9540E-11    56.73    4.1204E-01   -92.57
       0.4500    -1.9600     0.0000     6.6754E-12  -130.86    2.9075E-11    49.14    4.0988E-01  -100.19
       0.5000    -1.9600     0.0000     7.2882E-12  -139.30    2.8570E-11    40.70    4.0750E-01  -108.66
       0.5500    -1.9600     0.0000     7.8651E-12  -148.57    2.8028E-11    31.43    4.0492E-01  -117.96
       0.6000    -1.9600     0.0000     8.4044E-12  -158.66    2.7454E-11    21.34    4.0215E-01  -128.08
       0.6500    -1.9600     0.0000     8.9052E-12  -169.54    2.6853E-11    10.46    3.9920E-01  -139.01
       0.7000    -1.9600     0.0000     9.3668E-12   178.79    2.6227E-11    -1.21    3.9609E-01  -150.72
       0.7500    -1.9600     0.0000     9.7889E-12   166.35    2.5582E-11   -13.65    3.9283E-01  -163.19
       0.8000    -1.9600     0.0000     1.0172E-11   153.17    2.4920E-11   -26.83    3.8943E-01  -176.41
       0.8500    -1.9600     0.0000     1.0515E-11   139.26    2.4247E-11   -40.74    3.8591E-01   169.64
       0.9000    -1.9600     0.0000     1.0821E-11   124.65    2.3566E-11   -55.35    3.8227E-01   154.98
       0.9500    -1.9600     0.0000     1.1090E-11   109.35    2.2880E-11   -70.65    3.7854E-01   139.63
       1.0000    -1.9600     0.0000     1.1322E-11    93.38    2.2192E-11   -86.62    3.7472E-01   123.61
       1.0500    -1.9600     0.0000     1.1520E-11    76.76    2.1505E-11  -103.24    3.7083E-01   106.94
       1.1000    -1.9600     0.0000     1.1686E-11    59.51    2.0821E-11  -120.49    3.6688E-01    89.65
       1.1500    -1.9600     0.0000     1.1819E-11    41.66    2.0144E-11  -138.34    3.6287E-01    71.74
       1.2000    -1.9600     0.0000     1.1924E-11    23.21    1.9475E-11  -156.79    3.5883E-01    53.25
       1.2500    -1.9600     0.0000     1.2000E-11     4.20    1.8817E-11  -175.80    3.5475E-01    34.18
       1.3000    -1.9600     0.0000     1.2051E-11   -15.36    1.8169E-11   164.64    3.5065E-01    14.57
       1.3500    -1.9600     0.0000     1.2078E-11   -35.46    1.7535E-11   144.54    3.4653E-01    -5.58
       1.4000    -1.9600     0.0000     1.2082E-11   -56.07    1.6915E-11   123.93    3.4241E-01   -26.24
       1.4500    -1.9600     0.0000     1.2066E-11   -77.17    1.6310E-11   102.83    3.3830E-01   -47.39
       1.5000    -1.9600     0.0000     1.2031E-11   -98.75    1.5721E-11    81.25    3.3419E-01   -69.03
       1.5500    -1.9600     0.0000     1.1980E-11  -120.80    1.5148E-11    59.20    3.3009E-01   -91.12
       1.6000    -1.9600     0.0000     1.1912E-11  -143.28    1.4592E-11    36.72    3.2602E-01  -113.66
       1.6500    -1.9600     0.0000     1.1831E-11  -166.20    1.4054E-11    13.80    3.2197E-01  -136.62
       1.7000    -1.9600     0.0000     1.1737E-11   170.48    1.3532E-11    -9.52    3.1794E-01  -160.00
       1.7500    -1.9600     0.0000     1.1632E-11   146.75    1.3028E-11   -33.25    3.1396E-01   176.23
       1.8000    -1.9600     0.0000     1.1517E-11   122.65    1.2541E-11   -57.35    3.1001E-01   152.08
       1.8500    -1.9600     0.0000     1.1394E-11    98.18    1.2071E-11   -81.82    3.0610E-01   127.56
       1.9000    -1.9600     0.0000     1.1262E-11    73.35    1.1618E-11  -106.65    3.0223E-01   102.68
       1.9500    -1.9600     0.0000     1.1125E-11    48.18    1.1182E-11  -131.82    2.9841E-01    77.46
       2.0000    -1.9600     0.0000     1.0981E-11    22.68    1.0762E-11  -157.32    2.9463E-01    51.92
       2.0500    -1.9600     0.0000     1.0833E-11    -3.13    1.0358E-11   176.87    2.9091E-01    26.06
       2.1000    -1.9600     0.0000     1.0681E-11   -29.25    9.9694E-12   150.75    2.8724E-01    -0.10
       2.1500    -1.9600     0.0000     1.0526E-11   -55.66    9.5961E-12   124.34    2.8361E-01   -26.56
       2.2000    -1.9600     0.0000     1.0369E-11   -82.35    9.2376E-12    97.65    2.8005E-01   -53.29
       2.2500    -1.9600     0.0000     1.0209E-11  -109.31    8.8934E-12    70.69    2.7653E-01   -80.30
       2.3000    -1.9600     0.0000     1.0048E-11  -136.54    8.5630E-12    43.46    2.7307E-01  -107.57
       2.3500    -1.9600     0.0000     9.8867E-12  -164.02    8.2459E-12    15.98    2.6967E-01  -135.09
       2.4000    -1.9600     0.0000     9.7245E-12   168.26    7.9417E-12   -11.74    2.6632E-01  -162.85
       2.4500    -1.9600     0.0000     9.5624E-12   140.31    7.6499E-12   -39.69    2.6302E-01   169.16
       2.5000    -1.9600     0.0000     9.4007E-12   112.13    7.3701E-12   -67.87    2.5978E-01   140.94
       2.5500    -1.9600     0.0000     9.2396E-12    83.74    7.1018E-12   -96.26    2.5660E-01   112.50
       2.6000    -1.9600     0.0000     9.0795E-12    55.13    6.8445E-12  -124.87    2.5347E-01    83.86
       2.6500    -1.9600     0.0000     8.9206E-12    26.33    6.5979E-12  -153.67    2.5039E-01    55.02
       2.7000    -1.9600     0.0000     8.7631E-12    -2.67    6.3614E-12   177.33    2.4737E-01    25.98
       2.7500    -1.9600     0.0000     8.6073E-12   -31.86    6.1346E-12   148.14    2.4440E-01    -3.25
       2.8000    -1.9600     0.0000     8.4532E-12   -61.23    5.9173E-12   118.77    2.4148E-01   -32.65
       2.8500    -1.9600     0.0000     8.3011E-12   -90.77    5.7088E-12    89.23    2.3862E-01   -62.23
       2.9000    -1.9600     0.0000     8.1511E-12  -120.48    5.5090E-12    59.52    2.3581E-01   -91.98
       2.9500    -1.9600     0.0000     8.0032E-12  -150.36    5.3174E-12    29.64    2.3304E-01  -121.88
       3.0000    -1.9600     0.0000     7.8575E-12   179.61    5.1336E-12    -0.39    2.3033E-01  -151.95
       3.0500    -1.9600     0.0000     7.7142E-12   149.43    4.9573E-12   -30.57    2.2767E-01   177.84
       3.1000    -1.9600     0.0000     7.5733E-12   119.10    4.7883E-12   -60.90    2.2506E-01   147.48
       3.1500    -1.9600     0.0000     7.4347E-12    88.64    4.6261E-12   -91.36    2.2249E-01   116.98
       3.2000    -1.9600     0.0000     7.2987E-12    58.03    4.4704E-12  -121.97    2.1997E-01    86.34
       3.2500    -1.9600     0.0000     7.1651E-12    27.29    4.3211E-12  -152.71    2.1750E-01    55.57
       3.3000    -1.9600     0.0000     7.0340E-12    -3.57    4.1777E-12   176.43    2.1507E-01    24.68
       3.3500    -1.9600     0.0000     6.9054E-12   -34.56    4.0401E-12   145.44    2.1268E-01    -6.34
       3.4000    -1.9600     0.0000     6.7792E-12   -65.67    3.9080E-12   114.33    2.1034E-01   -37.47
       3.4500    -1.9600     0.0000     6.6556E-12   -96.89    3.7812E-12    83.11    2.0805E-01   -68.72
       3.5000    -1.9600     0.0000     6.5345E-12  -128.22    3.6593E-12    51.78    2.0579E-01  -100.09
       3.5500    -1.9600     0.0000     6.4158E-12  -159.66    3.5422E-12    20.34    2.0357E-01  -131.55
       3.6000    -1.9600     0.0000     6.2995E-12   168.79    3.4297E-12   -11.21    2.0140E-01  -163.13
       3.6500    -1.9600     0.0000     6.1857E-12   137.14    3.3216E-12   -42.86    1.9926E-01   165.20
       3.7000    -1.9600     0.0000     6.0742E-12   105.40    3.2177E-12   -74.60    1.9716E-01   133.43
       3.7500    -1.9600     0.0000     5.9651E-12    73.56    3.1178E-12  -106.44    1.9511E-01   101.56
       3.8000    -1.9600     0.0000     5.8584E-12    41.62    3.0217E-12  -138.38    1.9308E-01    69.60
       3.8500    -1.9600     0.0000     5.7539E-12     9.60    2.9292E-12  -170.40    1.9110E-01    37.56
       3.9000    -1.9600     0.0000     5.6516E-12   -22.51    2.8403E-12   157.49    1.8914E-01     5.42
       3.9500    -1.9600     0.0000     5.5516E-12   -54.70    2.7547E-12   125.30    1.8723E-01   -26.79
       4.0000    -1.9600     0.0000     5.4537E-12   -86.97    2.6723E-12    93.03    1.8534E-01   -59.09
      -1.0000    -1.9200     0.0000     1.1890E-11   -61.12    2.2828E-11   -61.12    3.8086E-01   149.18
      -0.9500    -1.9200     0.0000     1.1657E-11   -44.89    2.3560E-11   -44.89    3.8487E-01   165.47
      -0.9000    -1.9200     0.0000     1.1387E-11   -29.33    2.4291E-11   -29.33    3.8879E-01  -178.93
      -0.8500    -1.9200     0.0000     1.1076E-11   -14.47    2.5019E-11   -14.47    3.9262E-01  -164.01
      -0.8000    -1.9200     0.0000     1.0724E-11    -0.32    2.5738E-11    -0.32    3.9633E-01  -149.82
      -0.7500    -1.9200     0.0000     1.0330E-11    13.10    2.6446E-11    13.10    3.9991E-01  -136.36
      -0.7000    -1.9200     0.0000     9.8941E-12    25.75    2.7138E-11    25.75    4.0336E-01  -123.66
      -0.6500    -1.9200     0.0000     9.4149E-12    37.64    2.7810E-11    37.64    4.0664E-01  -111.73
      -0.6000    -1.9200     0.0000     8.8929E-12    48.73    2.8457E-11    48.73    4.0976E-01  -100.60
      -0.5500    -1.9200     0.0000     8.3289E-12    59.01    2.9075E-11    59.01    4.1269E-01   -90.29
      -0.5000    -1.9200     0.0000     7.7238E-12    68.45    2.9659E-11    68.45    4.1542E-01   -80.81
      -0.4500    -1.9200     0.0000     7.0793E-12    77.06    3.0205E-11    77.06    4.1794E-01   -72.17
      -0.4000    -1.9200     0.0000     6.3973E-12    84.80    3.0707E-11    84.80    4.2023E-01   -64.40
      -0.3500    -1.9200     0.0000     5.6806E-12    91.66    3.1162E-11    91.66    4.2229E-01   -57.51
      -0.3000    -1.9200     0.0000     4.9321E-12    97.64    3.1566E-11    97.64    4.2410E-01   -51.51
      -0.2500    -1.9200     0.0000     4.1554E-12   102.72    3.1914E-11   102.72    4.2564E-01   -46.42
      -0.2000    -1.9200     0.0000     3.3545E-12   106.89    3.2204E-11   106.89    4.2692E-01   -42.23
      -0.1500    -1.9200     0.0000     2.5337E-12   110.14    3.2432E-11   110.14    4.2792E-01   -38.97
      -0.1000    -1.9200     0.0000     1.6977E-12   112.46    3.2597E-11   112.46    4.2864E-01   -36.63
      -0.0500    -1.9200     0.0000     8.5146E-13   113.86    3.2696E-11   113.86    4.2907E-01   -35.23
       0.0000    -1.9200     0.0000     5.4411E-27   -65.67    3.2729E-11   114.33    4.2922E-01   -34.76
       0.0500    -1.9200     0.0000     8.5146E-13   -66.14    3.2696E-11   113.86    4.2907E-01   -35.23
       0.1000    -1.9200     0.0000     1.6977E-12   -67.54    3.2597E-11   112.46    4.2864E-01   -36.63
       0.1500    -1.9200     0.0000     2.5337E-12   -69.86    3.2432E-11   110.14    4.2792E-01   -38.97
       0.2000    -1.9200     0.0000     3.3545E-12   -73.11    3.2204E-11   106.89    4.2692E-01   -42.23
       0.2500    -1.9200     0.0000     4.1554E-12   -77.28    3.1914E-11   102.72    4.2564E-01   -46.42
       0.3000    -1.9200     0.0000     4.9321E-12   -82.36    3.1566E-11    97.64    4.2410E-01   -51.51
       0.3500    -1.9200     0.0000     5.6806E-12   -88.34    3.1162E-11    91.66    4.2229E-01   -57.51
       0.4000    -1.9200     0.0000     6.3973E-12   -95.20    3.0707E-11    84.80    4.2023E-01   -64.40
       0.4500    -1.9200     0.0000     7.0793E-12  -102.94    3.0205E-11    77.06    4.1794E-01   -72.17
       0.5000    -1.9200     0.0000     7.7238E-12  -111.55    2.9659E-11    68.45    4.1542E-01   -80.81
       0.5500    -1.9200     0.0000     8.3289E-12  -120.99    2.9075E-11    59.01    4.1269E-01   -90.29
       0.6000    -1.9200     0.0000     8.8929E-12  -131.27    2.8457E-11    48.73    4.0976E-01  -100.60
       0.6500    -1.9200     0.0000     9.4149E-12  -142.36    2.7810E-11    37.64    4.0664E-01  -111.73
       0.7000    -1.9200     0.0000     9.8941E-12  -154.25    2.7138E-11    25.75    4.0336E-01  -123.66
       0.7500    -1.9200     0.0000     1.0330E-11  -166.90    2.6446E-11    13.10    3.9991E-01  -136.36
       0.8000    -1.9200     0.0000     1.0724E-11   179.68    2.5738E-11    -0.32    3.9633E-01  -149.82
       0.8500    -1.9200     0.0000     1.1076E-11   165.53    2.5019E-11   -14.47    3.9262E-01  -164.01
       0.9000    -1.9200     0.0000     1.1387E-11   150.67    2.4291E-11   -29.33    3.8879E-01  -178.93
       0.9500    -1.9200     0.0000     1.1657E-11   135.11    2.3560E-11   -44.89    3.8487E-01   165.47
       1.0000    -1.9200     0.0000     1.1890E-11   118.88    2.2828E-11   -61.12    3.8086E-01   149.18
       1.0500    -1.9200     0.0000     1.2085E-11   101.99    2.2099E-11   -78.01    3.7677E-01   132.25
       1.1000    -1.9200     0.0000     1.2246E-11    84.47    2.1375E-11   -95.53    3.7263E-01   114.68
       1.1500    -1.9200     0.0000     1.2373E-11    66.34    2.0658E-11  -113.66    3.6843E-01    96.49
       1.2000    -1.9200     0.0000     1.2470E-11    47.62    1.9951E-11  -132.38    3.6420E-01    77.72
       1.2500    -1.9200     0.0000     1.2537E-11    28.33    1.9257E-11  -151.67    3.5994E-01    58.37
       1.3000    -1.9200     0.0000     1.2577E-11     8.48    1.8575E-11  -171.52    3.5566E-01    38.48
       1.3500    -1.9200     0.0000     1.2592E-11   -11.90    1.7909E-11   168.10    3.5137E-01    18.04
       1.4000    -1.9200     0.0000     1.2584E-11   -32.79    1.7258E-11   147.21    3.4708E-01    -2.90
       1.4500    -1.9200     0.0000     1.2555E-11   -54.18    1.6625E-11   125.82    3.4279E-01   -24.34
       1.5000    -1.9200     0.0000     1.2507E-11   -76.04    1.6009E-11   103.96    3.3852E-01   -46.26
       1.5500    -1.9200     0.0000     1.2441E-11   -98.36    1.5411E-11    81.64    3.3426E-01   -68.63
       1.6000    -1.9200     0.0000     1.2359E-11  -121.13    1.4831E-11    58.87    3.3003E-01   -91.45
       1.6500    -1.9200     0.0000     1.2264E-11  -144.32    1.4270E-11    35.68    3.2583E-01  -114.69
       1.7000    -1.9200     0.0000     1.2155E-11  -167.92    1.3728E-11    12.08    3.2167E-01  -138.35
       1.7500    -1.9200     0.0000     1.2036E-11   168.08    1.3205E-11   -11.92    3.1754E-01  -162.39
       1.8000    -1.9200     0.0000     1.1907E-11   143.71    1.2700E-11   -36.29    3.1345E-01   173.18
       1.8500    -1.9200     0.0000     1.1769E-11   118.97    1.2214E-11   -61.03    3.0941E-01   148.39
       1.9000    -1.9200     0.0000     1.1624E-11    93.88    1.1746E-11   -86.12    3.0542E-01   123.25
       1.9500    -1.9200     0.0000     1.1473E-11    68.45    1.1296E-11  -111.55    3.0148E-01    97.77
       2.0000    -1.9200     0.0000     1.1316E-11    42.69    1.0863E-11  -137.31    2.9759E-01    71.97
       2.0500    -1.9200     0.0000     1.1155E-11    16.62    1.0447E-11  -163.38    2.9375E-01    45.85
       2.1000    -1.9200     0.0000     1.0990E-11    -9.74    1.0048E-11   170.26    2.8997E-01    19.44
       2.1500    -1.9200     0.0000     1.0823E-11   -36.40    9.6650E-12   143.60    2.8625E-01    -7.27
       2.2000    -1.9200     0.0000     1.0653E-11   -63.34    9.2974E-12   116.66    2.8258E-01   -34.25
       2.2500    -1.9200     0.0000     1.0482E-11   -90.54    8.9448E-12    89.46    2.7897E-01   -61.50
       2.3000    -1.9200     0.0000     1.0310E-11  -118.00    8.6068E-12    62.00    2.7542E-01   -89.00
       2.3500    -1.9200     0.0000     1.0138E-11  -145.71    8.2828E-12    34.29    2.7193E-01  -116.76
       2.4000    -1.9200     0.0000     9.9653E-12  -173.66    7.9722E-12     6.34    2.6849E-01  -144.75
       2.4500    -1.9200     0.0000     9.7932E-12   158.16    7.6747E-12   -21.84    2.6512E-01  -172.97
       2.5000    -1.9200     0.0000     9.6219E-12   129.76    7.3896E-12   -50.24    2.6180E-01   158.59
       2.5500    -1.9200     0.0000     9.4516E-12   101.15    7.1165E-12   -78.85    2.5854E-01   129.94
       2.6000    -1.9200     0.0000     9.2827E-12    72.33    6.8549E-12  -107.67    2.5534E-01   101.08
       2.6500    -1.9200     0.0000     9.1153E-12    43.32    6.6043E-12  -136.68    2.5219E-01    72.03
       2.7000    -1.9200     0.0000     8.9497E-12    14.11    6.3642E-12  -165.89    2.4911E-01    42.78
       2.7500    -1.9200     0.0000     8.7861E-12   -15.28    6.1343E-12   164.72    2.4608E-01    13.35
       2.8000    -1.9200     0.0000     8.6246E-12   -44.85    5.9140E-12   135.15    2.4310E-01   -16.25
       2.8500    -1.9200     0.0000     8.4654E-12   -74.59    5.7030E-12   105.41    2.4018E-01   -46.02
       2.9000    -1.9200     0.0000     8.3085E-12  -104.49    5.5008E-12    75.51    2.3731E-01   -75.96
       2.9500    -1.9200     0.0000     8.1541E-12  -134.55    5.3071E-12    45.45    2.3450E-01  -106.06
       3.0000    -1.9200     0.0000     8.0022E-12  -164.76    5.1214E-12    15.24    2.3173E-01  -136.31
       3.0500    -1.9200     0.0000     7.8529E-12   164.87    4.9435E-12   -15.13    2.2902E-01  -166.70
       3.1000    -1.9200     0.0000     7.7063E-12   134.37    4.7729E-12   -45.63    2.2636E-01   162.76
       3.1500    -1.9200     0.0000     7.5623E-12   103.72    4.6094E-12   -76.28    2.2375E-01   132.08
       3.2000    -1.9200     0.0000     7.4211E-12    72.95    4.4526E-12  -107.05    2.2119E-01   101.27
       3.2500    -1.9200     0.0000     7.2825E-12    42.04    4.3023E-12  -137.96    2.1868E-01    70.34
       3.3000    -1.9200     0.0000     7.1466E-12    11.01    4.1580E-12  -168.99    2.1621E-01    39.28
       3.3500    -1.9200     0.0000     7.0135E-12   -20.14    4.0197E-12   159.86    2.1379E-01     8.10
       3.4000    -1.9200     0.0000     6.8831E-12   -51.40    3.8869E-12   128.60    2.1141E-01   -23.20
       3.4500    -1.9200     0.0000     6.7553E-12   -82.78    3.7595E-12    97.22    2.0908E-01   -54.61
       3.5000    -1.9200     0.0000     6.6302E-12  -114.27    3.6371E-12    65.73    2.0679E-01   -86.12
       3.5500    -1.9200     0.0000     6.5077E-12  -145.86    3.5197E-12    34.14    2.0454E-01  -117.74
       3.6000    -1.9200     0.0000     6.3879E-12  -177.56    3.4069E-12     2.44    2.0233E-01  -149.46
       3.6500    -1.9200     0.0000     6.2706E-12   150.65    3.2985E-12   -29.35    2.0017E-01   178.72
       3.7000    -1.9200     0.0000     6.1558E-12   118.76    3.1944E-12   -61.24    1.9804E-01   146.80
       3.7500    -1.9200     0.0000     6.0436E-12    86.78    3.0943E-12   -93.22    1.9596E-01   114.80
       3.8000    -1.9200     0.0000     5.9338E-12    54.71    2.9981E-12  -125.29    1.9391E-01    82.70
       3.8500    -1.9200     0.0000     5.8264E-12    22.56    2.9056E-12  -157.44    1.9189E-01    50.52
       3.9000    -1.9200     0.0000     5.7214E-12    -9.69    2.8167E-12   170.31    1.8992E-01    18.25
       3.9500    -1.9200     0.0000     5.6187E-12   -42.01    2.7311E-12   137.99    1.8798E-01   -14.09
       4.0000    -1.9200     0.0000     5.5183E-12   -74.41    2.6488E-12   105.59    1.8607E-01   -46.52
      -1.0000    -1.8800     0.0000     1.2493E-11   -35.74    2.3487E-11   -35.74    3.8717E-01   174.64
      -0.9500    -1.8800     0.0000     1.2262E-11   -19.24    2.4266E-11   -19.24    3.9138E-01  -168.80
      -0.9000    -1.8800     0.0000     1.1990E-11    -3.42    2.5045E-11    -3.42    3.9551E-01  -152.93
      -0.8500    -1.8800     0.0000     1.1675E-11    11.71    2.5822E-11    11.71    3.9954E-01  -137.75
      -0.8000    -1.8800     0.0000     1.1316E-11    26.11    2.6592E-11    26.11    4.0345E-01  -123.31
      -0.7500    -1.8800     0.0000     1.0911E-11    39.76    2.7351E-11    39.76    4.0724E-01  -109.60
      -0.7000    -1.8800     0.0000     1.0460E-11    52.65    2.8093E-11    52.65    4.1087E-01   -96.67
      -0.6500    -1.8800     0.0000     9.9629E-12    64.76    2.8816E-11    64.76    4.1435E-01   -84.52
      -0.6000    -1.8800     0.0000     9.4190E-12    76.06    2.9513E-11    76.06    4.1765E-01   -73.18
      -0.5500    -1.8800     0.0000     8.8290E-12    86.53    3.0179E-11    86.53    4.2075E-01   -62.66
      -0.5000    -1.8800     0.0000     8.1941E-12    96.17    3.0810E-11    96.17    4.2365E-01   -52.99
      -0.4500    -1.8800     0.0000     7.5159E-12   104.94    3.1400E-11   104.94    4.2632E-01   -44.19
      -0.4000    -1.8800     0.0000     6.7965E-12   112.83    3.1943E-11   112.83    4.2876E-01   -36.26
      -0.3500    -1.8800     0.0000     6.0387E-12   119.84    3.2436E-11   119.84    4.3094E-01   -29.23
      -0.3000    -1.8800     0.0000     5.2459E-12   125.94    3.2874E-11   125.94    4.3286E-01   -23.11
      -0.2500    -1.8800     0.0000     4.4218E-12   131.12    3.3252E-11   131.12    4.3450E-01   -17.90
      -0.2000    -1.8800     0.0000     3.5709E-12   135.37    3.3567E-11   135.37    4.3586E-01   -13.63
      -0.1500    -1.8800     0.0000     2.6980E-12   138.69    3.3815E-11   138.69    4.3693E-01   -10.30
      -0.1000    -1.8800     0.0000     1.8082E-12   141.07    3.3994E-11   141.07    4.3769E-01    -7.92
      -0.0500    -1.8800     0.0000     9.0698E-13   142.49    3.4102E-11   142.49    4.3816E-01    -6.48
       0.0000    -1.8800     0.0000     5.7961E-27   -37.03    3.4139E-11   142.97    4.3831E-01    -6.01
       0.0500    -1.8800     0.0000     9.0698E-13   -37.51    3.4102E-11   142.49    4.3816E-01    -6.48
       0.1000    -1.8800     0.0000     1.8082E-12   -38.93    3.3994E-11   141.07    4.3769E-01    -7.92
       0.1500    -1.8800     0.0000     2.6980E-12   -41.31    3.3815E-11   138.69    4.3693E-01   -10.30
       0.2000    -1.8800     0.0000     3.5709E-12   -44.63    3.3567E-11   135.37    4.3586E-01   -13.63
       0.2500    -1.8800     0.0000     4.4218E-12   -48.88    3.3252E-11   131.12    4.3450E-01   -17.90
       0.3000    -1.8800     0.0000     5.2459E-12   -54.06    3.2874E-11   125.94    4.3286E-01   -23.11
       0.3500    -1.8800     0.0000     6.0387E-12   -60.16    3.2436E-11   119.84    4.3094E-01   -29.23
       0.4000    -1.8800     0.0000     6.7965E-12   -67.17    3.1943E-11   112.83    4.2876E-01   -36.26
       0.4500    -1.8800     0.0000     7.5159E-12   -75.06    3.1400E-11   104.94    4.2632E-01   -44.19
       0.5000    -1.8800     0.0000     8.1941E-12   -83.83    3.0810E-11    96.17    4.2365E-01   -52.99
       0.5500    -1.8800     0.0000     8.8290E-12   -93.47    3.0179E-11    86.53    4.2075E-01   -62.66
       0.6000    -1.8800     0.0000     9.4190E-12  -103.94    2.9513E-11    76.06    4.1765E-01   -73.18
       0.6500    -1.8800     0.0000     9.9629E-12  -115.24    2.8816E-11    64.76    4.1435E-01   -84.52
       0.7000    -1.8800     0.0000     1.0460E-11  -127.35    2.8093E-11    52.65    4.1087E-01   -96.67
       0.7500    -1.8800     0.0000     1.0911E-11  -140.24    2.7351E-11    39.76    4.0724E-01  -109.60
       0.8000    -1.8800     0.0000     1.1316E-11  -153.89    2.6592E-11    26.11    4.0345E-01  -123.31
       0.8500    -1.8800     0.0000     1.1675E-11  -168.29    2.5822E-11    11.71    3.9954E-01  -137.75
       0.9000    -1.8800     0.0000     1.1990E-11   176.58    2.5045E-11    -3.42    3.9551E-01  -152.93
       0.9500    -1.8800     0.0000     1.2262E-11   160.76    2.4266E-11   -19.24    3.9138E-01  -168.80
       1.0000    -1.8800     0.0000     1.2493E-11   144.26    2.3487E-11   -35.74    3.8717E-01   174.64
       1.0500    -1.8800     0.0000     1.2685E-11   127.10    2.2712E-11   -52.90    3.8288E-01   157.43
       1.1000    -1.8800     0.0000     1.2839E-11   109.30    2.1944E-11   -70.70    3.7853E-01   139.58
       1.1500    -1.8800     0.0000     1.2959E-11    90.89    2.1185E-11   -89.11    3.7414E-01   121.11
       1.2000    -1.8800     0.0000     1.3046E-11    71.88    2.0439E-11  -108.12    3.6970E-01   102.05
       1.2500    -1.8800     0.0000     1.3102E-11    52.30    1.9706E-11  -127.70    3.6525E-01    82.41
       1.3000    -1.8800     0.0000     1.3130E-11    32.17    1.8988E-11  -147.83    3.6078E-01    62.23
       1.3500    -1.8800     0.0000     1.3132E-11    11.50    1.8288E-11  -168.50    3.5630E-01    41.50
       1.4000    -1.8800     0.0000     1.3110E-11    -9.68    1.7605E-11   170.32    3.5183E-01    20.27
       1.4500    -1.8800     0.0000     1.3067E-11   -31.35    1.6941E-11   148.65    3.4737E-01    -1.46
       1.5000    -1.8800     0.0000     1.3003E-11   -53.50    1.6297E-11   126.50    3.4292E-01   -23.67
       1.5500    -1.8800     0.0000     1.2922E-11   -76.11    1.5673E-11   103.89    3.3850E-01   -46.33
       1.6000    -1.8800     0.0000     1.2825E-11   -99.16    1.5069E-11    80.84    3.3411E-01   -69.43
       1.6500    -1.8800     0.0000     1.2713E-11  -122.63    1.4486E-11    57.37    3.2975E-01   -92.96
       1.7000    -1.8800     0.0000     1.2589E-11  -146.52    1.3922E-11    33.48    3.2544E-01  -116.90
       1.7500    -1.8800     0.0000     1.2454E-11  -170.79    1.3380E-11     9.21    3.2117E-01  -141.22
       1.8000    -1.8800     0.0000     1.2310E-11   164.56    1.2857E-11   -15.44    3.1694E-01  -165.92
       1.8500    -1.8800     0.0000     1.2157E-11   139.55    1.2354E-11   -40.45    3.1277E-01   169.01
       1.9000    -1.8800     0.0000     1.1997E-11   114.19    1.1871E-11   -65.81    3.0864E-01   143.60
       1.9500    -1.8800     0.0000     1.1831E-11    88.50    1.1406E-11   -91.50    3.0458E-01   117.86
       2.0000    -1.8800     0.0000     1.1660E-11    62.48    1.0961E-11  -117.52    3.0057E-01    91.79
       2.0500    -1.8800     0.0000     1.1485E-11    36.16    1.0533E-11  -143.84    2.9662E-01    65.42
       2.1000    -1.8800     0.0000     1.1307E-11     9.54    1.0123E-11  -170.46    2.9273E-01    38.75
       2.1500    -1.8800     0.0000     1.1127E-11   -17.37    9.7296E-12   162.63    2.8890E-01    11.80
       2.2000    -1.8800     0.0000     1.0945E-11   -44.55    9.3528E-12   135.45    2.8513E-01   -15.43
       2.2500    -1.8800     0.0000     1.0762E-11   -71.99    8.9919E-12   108.01    2.8142E-01   -42.92
       2.3000    -1.8800     0.0000     1.0578E-11   -99.69    8.6463E-12    80.31    2.7778E-01   -70.67
       2.3500    -1.8800     0.0000     1.0394E-11  -127.64    8.3153E-12    52.36    2.7419E-01   -98.65
       2.4000    -1.8800     0.0000     1.0211E-11  -155.81    7.9985E-12    24.19    2.7067E-01  -126.87
       2.4500    -1.8800     0.0000     1.0028E-11   175.78    7.6952E-12    -4.22    2.6722E-01  -155.32
       2.5000    -1.8800     0.0000     9.8471E-12   147.16    7.4050E-12   -32.84    2.6382E-01   176.02
       2.5500    -1.8800     0.0000     9.6672E-12   118.33    7.1272E-12   -61.67    2.6049E-01   147.14
       2.6000    -1.8800     0.0000     9.4891E-12    89.30    6.8614E-12   -90.70    2.5721E-01   118.07
       2.6500    -1.8800     0.0000     9.3130E-12    60.07    6.6069E-12  -119.93    2.5400E-01    88.81
       2.7000    -1.8800     0.0000     9.1390E-12    30.66    6.3634E-12  -149.34    2.5085E-01    59.36
       2.7500    -1.8800     0.0000     8.9673E-12     1.07    6.1304E-12  -178.93    2.4775E-01    29.72
       2.8000    -1.8800     0.0000     8.7981E-12   -28.70    5.9073E-12   151.30    2.4472E-01    -0.08
       2.8500    -1.8800     0.0000     8.6316E-12   -58.63    5.6938E-12   121.37    2.4174E-01   -30.05
       2.9000    -1.8800     0.0000     8.4677E-12   -88.72    5.4894E-12    91.28    2.3881E-01   -60.18
       2.9500    -1.8800     0.0000     8.3066E-12  -118.97    5.2937E-12    61.03    2.3595E-01   -90.46
       3.0000    -1.8800     0.0000     8.1483E-12  -149.37    5.1063E-12    30.63    2.3313E-01  -120.90
       3.0500    -1.8800     0.0000     7.9929E-12  -179.91    4.9268E-12     0.09    2.3037E-01  -151.47
       3.1000    -1.8800     0.0000     7.8404E-12   149.40    4.7548E-12   -30.60    2.2767E-01   177.81
       3.1500    -1.8800     0.0000     7.6909E-12   118.58    4.5901E-12   -61.42    2.2501E-01   146.96
       3.2000    -1.8800     0.0000     7.5443E-12    87.64    4.4323E-12   -92.36    2.2241E-01   115.98
       3.2500    -1.8800     0.0000     7.4006E-12    56.56    4.2810E-12  -123.44    2.1985E-01    84.87
       3.3000    -1.8800     0.0000     7.2599E-12    25.37    4.1360E-12  -154.63    2.1734E-01    53.65
       3.3500    -1.8800     0.0000     7.1222E-12    -5.94    3.9969E-12   174.06    2.1488E-01    22.31
       3.4000    -1.8800     0.0000     6.9873E-12   -37.37    3.8636E-12   142.63    2.1247E-01    -9.15
       3.4500    -1.8800     0.0000     6.8553E-12   -68.90    3.7357E-12   111.10    2.1010E-01   -40.71
       3.5000    -1.8800     0.0000     6.7262E-12  -100.54    3.6129E-12    79.46    2.0778E-01   -72.38
       3.5500    -1.8800     0.0000     6.5999E-12  -132.28    3.4952E-12    47.72    2.0550E-01  -104.15
       3.6000    -1.8800     0.0000     6.4764E-12  -164.12    3.3821E-12    15.88    2.0326E-01  -136.02
       3.6500    -1.8800     0.0000     6.3556E-12   163.94    3.2736E-12   -16.06    2.0107E-01  -167.98
       3.7000    -1.8800     0.0000     6.2375E-12   131.91    3.1693E-12   -48.09    1.9891E-01   159.96
       3.7500    -1.8800     0.0000     6.1221E-12    99.79    3.0692E-12   -80.21    1.9680E-01   127.82
       3.8000    -1.8800     0.0000     6.0092E-12    67.58    2.9730E-12  -112.42    1.9472E-01    95.58
       3.8500    -1.8800     0.0000     5.8989E-12    35.29    2.8805E-12  -144.71    1.9269E-01    63.27
       3.9000    -1.8800     0.0000     5.7912E-12     2.92    2.7916E-12  -177.08    1.9069E-01    30.87
       3.9500    -1.8800     0.0000     5.6858E-12   -29.53    2.7062E-12   150.47    1.8872E-01    -1.61
       4.0000    -1.8800     0.0000     5.5829E-12   -62.06    2.6240E-12   117.94    1.8679E-01   -34.16
      -1.0000    -1.8400     0.0000     1.3135E-11   -10.49    2.4168E-11   -10.49    3.9366E-01  -160.02
      -0.9500    -1.8400     0.0000     1.2906E-11     6.30    2.4997E-11     6.30    3.9809E-01  -143.18
      -0.9000    -1.8400     0.0000     1.2634E-11    22.39    2.5829E-11    22.39    4.0244E-01  -127.03
      -0.8500    -1.8400     0.0000     1.2315E-11    37.78    2.6659E-11    37.78    4.0668E-01  -111.59
      -0.8000    -1.8400     0.0000     1.1949E-11    52.44    2.7483E-11    52.44    4.1081E-01   -96.88
      -0.7500    -1.8400     0.0000     1.1534E-11    66.34    2.8297E-11    66.34    4.1481E-01   -82.93
      -0.7000    -1.8400     0.0000     1.1069E-11    79.47    2.9096E-11    79.47    4.1866E-01   -69.75
      -0.6500    -1.8400     0.0000     1.0553E-11    91.81    2.9873E-11    91.81    4.2233E-01   -57.37
      -0.6000    -1.8400     0.0000     9.9863E-12   103.33    3.0625E-11   103.33    4.2583E-01   -45.80
      -0.5500    -1.8400     0.0000     9.3691E-12   114.01    3.1344E-11   114.01    4.2912E-01   -35.08
      -0.5000    -1.8400     0.0000     8.7027E-12   123.83    3.2026E-11   123.83    4.3219E-01   -25.22
      -0.4500    -1.8400     0.0000     7.9886E-12   132.78    3.2664E-11   132.78    4.3503E-01   -16.24
      -0.4000    -1.8400     0.0000     7.2291E-12   140.84    3.3254E-11   140.84    4.3762E-01    -8.15
      -0.3500    -1.8400     0.0000     6.4273E-12   147.99    3.3789E-11   147.99    4.3994E-01    -0.97
      -0.3000    -1.8400     0.0000     5.5866E-12   154.21    3.4264E-11   154.21    4.4199E-01     5.28
      -0.2500    -1.8400     0.0000     4.7114E-12   159.50    3.4676E-11   159.50    4.4374E-01    10.60
      -0.2000    -1.8400     0.0000     3.8063E-12   163.85    3.5018E-11   163.85    4.4518E-01    14.96
      -0.1500    -1.8400     0.0000     2.8768E-12   167.24    3.5288E-11   167.24    4.4632E-01    18.36
      -0.1000    -1.8400     0.0000     1.9284E-12   169.66    3.5483E-11   169.66    4.4714E-01    20.80
      -0.0500    -1.8400     0.0000     9.6743E-13   171.12    3.5601E-11   171.12    4.4763E-01    22.26
       0.0000    -1.8400     0.0000     6.1827E-27    -8.39    3.5641E-11   171.61    4.4779E-01    22.75
       0.0500    -1.8400     0.0000     9.6743E-13    -8.88    3.5601E-11   171.12    4.4763E-01    22.26
       0.1000    -1.8400     0.0000     1.9284E-12   -10.34    3.5483E-11   169.66    4.4714E-01    20.80
       0.1500    -1.8400     0.0000     2.8768E-12   -12.76    3.5288E-11   167.24    4.4632E-01    18.36
       0.2000    -1.8400     0.0000     3.8063E-12   -16.15    3.5018E-11   163.85    4.4518E-01    14.96
       0.2500    -1.8400     0.0000     4.7114E-12   -20.50    3.4676E-11   159.50    4.4374E-01    10.60
       0.3000    -1.8400     0.0000     5.5866E-12   -25.79    3.4264E-11   154.21    4.4199E-01     5.28
       0.3500    -1.8400     0.0000     6.4273E-12   -32.01    3.3789E-11   147.99    4.3994E-01    -0.97
       0.4000    -1.8400     0.0000     7.2291E-12   -39.16    3.3254E-11   140.84    4.3762E-01    -8.15
       0.4500    -1.8400     0.0000     7.9886E-12   -47.22    3.2664E-11   132.78    4.3503E-01   -16.24
       0.5000    -1.8400     0.0000     8.7027E-12   -56.17    3.2026E-11   123.83    4.3219E-01   -25.22
       0.5500    -1.8400     0.0000     9.3691E-12   -65.99    3.1344E-11   114.01    4.2912E-01   -35.08
       0.6000    -1.8400     0.0000     9.9863E-12   -76.67    3.0625E-11   103.33    4.2583E-01   -45.80
       0.6500    -1.8400     0.0000     1.0553E-11   -88.19    2.9873E-11    91.81    4.2233E-01   -57.37
       0.7000    -1.8400     0.0000     1.1069E-11  -100.53    2.9096E-11    79.47    4.1866E-01   -69.75
       0.7500    -1.8400     0.0000     1.1534E-11  -113.66    2.8297E-11    66.34    4.1481E-01   -82.93
       0.8000    -1.8400     0.0000     1.1949E-11  -127.56    2.7483E-11    52.44    4.1081E-01   -96.88
       0.8500    -1.8400     0.0000     1.2315E-11  -142.22    2.6659E-11    37.78    4.0668E-01  -111.59
       0.9000    -1.8400     0.0000     1.2634E-11  -157.61    2.5829E-11    22.39    4.0244E-01  -127.03
       0.9500    -1.8400     0.0000     1.2906E-11  -173.70    2.4997E-11     6.30    3.9809E-01  -143.18
       1.0000    -1.8400     0.0000     1.3135E-11   169.51    2.4168E-11   -10.49    3.9366E-01  -160.02
       1.0500    -1.8400     0.0000     1.3321E-11   152.07    2.3344E-11   -27.93    3.8915E-01  -177.52
       1.1000    -1.8400     0.0000     1.3468E-11   133.99    2.2529E-11   -46.01    3.8459E-01   164.34
       1.1500    -1.8400     0.0000     1.3579E-11   115.29    2.1726E-11   -64.71    3.7998E-01   145.58
       1.2000    -1.8400     0.0000     1.3654E-11    95.99    2.0937E-11   -84.01    3.7534E-01   126.23
       1.2500    -1.8400     0.0000     1.3698E-11    76.11    2.0164E-11  -103.89    3.7068E-01   106.30
       1.3000    -1.8400     0.0000     1.3712E-11    55.69    1.9408E-11  -124.31    3.6601E-01    85.81
       1.3500    -1.8400     0.0000     1.3699E-11    34.73    1.8672E-11  -145.27    3.6134E-01    64.79
       1.4000    -1.8400     0.0000     1.3662E-11    13.25    1.7956E-11  -166.75    3.5668E-01    43.26
       1.4500    -1.8400     0.0000     1.3602E-11    -8.72    1.7260E-11   171.28    3.5203E-01    21.24
       1.5000    -1.8400     0.0000     1.3522E-11   -31.16    1.6587E-11   148.84    3.4741E-01    -1.26
       1.5500    -1.8400     0.0000     1.3424E-11   -54.06    1.5935E-11   125.94    3.4281E-01   -24.22
       1.6000    -1.8400     0.0000     1.3309E-11   -77.39    1.5306E-11   102.61    3.3825E-01   -47.61
       1.6500    -1.8400     0.0000     1.3181E-11  -101.15    1.4699E-11    78.85    3.3374E-01   -71.43
       1.7000    -1.8400     0.0000     1.3040E-11  -125.32    1.4114E-11    54.68    3.2926E-01   -95.65
       1.7500    -1.8400     0.0000     1.2888E-11  -149.87    1.3551E-11    30.13    3.2484E-01  -120.26
       1.8000    -1.8400     0.0000     1.2727E-11  -174.80    1.3010E-11     5.20    3.2047E-01  -145.24
       1.8500    -1.8400     0.0000     1.2558E-11   159.92    1.2490E-11   -20.08    3.1616E-01  -170.58
       1.9000    -1.8400     0.0000     1.2382E-11   134.29    1.1991E-11   -45.71    3.1190E-01   163.74
       1.9500    -1.8400     0.0000     1.2201E-11   108.33    1.1512E-11   -71.67    3.0771E-01   137.73
       2.0000    -1.8400     0.0000     1.2015E-11    82.05    1.1053E-11   -97.95    3.0357E-01   111.40
       2.0500    -1.8400     0.0000     1.1825E-11    55.47    1.0614E-11  -124.53    2.9950E-01    84.77
       2.1000    -1.8400     0.0000     1.1633E-11    28.59    1.0193E-11  -151.41    2.9550E-01    57.84
       2.1500    -1.8400     0.0000     1.1439E-11     1.44    9.7893E-12  -178.56    2.9156E-01    30.64
       2.2000    -1.8400     0.0000     1.1243E-11   -25.99    9.4034E-12   154.01    2.8769E-01     3.16
       2.2500    -1.8400     0.0000     1.1047E-11   -53.68    9.0342E-12   126.32    2.8388E-01   -24.58
       2.3000    -1.8400     0.0000     1.0851E-11   -81.62    8.6811E-12    98.38    2.8014E-01   -52.56
       2.3500    -1.8400     0.0000     1.0656E-11  -109.79    8.3433E-12    70.21    2.7647E-01   -80.78
       2.4000    -1.8400     0.0000     1.0461E-11  -138.20    8.0202E-12    41.80    2.7286E-01  -109.24
       2.4500    -1.8400     0.0000     1.0268E-11  -166.83    7.7114E-12    13.17    2.6932E-01  -137.91
       2.5000    -1.8400     0.0000     1.0076E-11   164.32    7.4160E-12   -15.68    2.6585E-01  -166.80
       2.5500    -1.8400     0.0000     9.8863E-12   135.28    7.1337E-12   -44.72    2.6244E-01   164.11
       2.6000    -1.8400     0.0000     9.6987E-12   106.03    6.8637E-12   -73.97    2.5909E-01   134.83
       2.6500    -1.8400     0.0000     9.5135E-12    76.60    6.6056E-12  -103.40    2.5581E-01   105.35
       2.7000    -1.8400     0.0000     9.3308E-12    46.98    6.3588E-12  -133.02    2.5259E-01    75.69
       2.7500    -1.8400     0.0000     9.1508E-12    17.18    6.1227E-12  -162.82    2.4943E-01    45.86
       2.8000    -1.8400     0.0000     8.9737E-12   -12.78    5.8970E-12   167.22    2.4633E-01    15.86
       2.8500    -1.8400     0.0000     8.7996E-12   -42.91    5.6811E-12   137.09    2.4329E-01   -14.31
       2.9000    -1.8400     0.0000     8.6285E-12   -73.19    5.4746E-12   106.81    2.4031E-01   -44.63
       2.9500    -1.8400     0.0000     8.4605E-12  -103.63    5.2770E-12    76.37    2.3739E-01   -75.10
       3.0000    -1.8400     0.0000     8.2956E-12  -134.21    5.0880E-12    45.79    2.3453E-01  -105.72
       3.0500    -1.8400     0.0000     8.1340E-12  -164.94    4.9070E-12    15.06    2.3172E-01  -136.48
       3.1000    -1.8400     0.0000     7.9755E-12   164.20    4.7339E-12   -15.80    2.2897E-01  -167.37
       3.1500    -1.8400     0.0000     7.8203E-12   133.21    4.5680E-12   -46.79    2.2626E-01   161.60
       3.2000    -1.8400     0.0000     7.6682E-12   102.10    4.4092E-12   -77.90    2.2362E-01   130.45
       3.2500    -1.8400     0.0000     7.5194E-12    70.86    4.2572E-12  -109.14    2.2102E-01    99.18
       3.3000    -1.8400     0.0000     7.3738E-12    39.50    4.1114E-12  -140.50    2.1847E-01    67.79
       3.3500    -1.8400     0.0000     7.2313E-12     8.03    3.9718E-12  -171.97    2.1597E-01    36.29
       3.4000    -1.8400     0.0000     7.0920E-12   -23.55    3.8380E-12   156.45    2.1352E-01     4.68
       3.4500    -1.8400     0.0000     6.9557E-12   -55.24    3.7097E-12   124.76    2.1112E-01   -27.04
       3.5000    -1.8400     0.0000     6.8225E-12   -87.03    3.5867E-12    92.97    2.0876E-01   -58.86
       3.5500    -1.8400     0.0000     6.6923E-12  -118.92    3.4687E-12    61.08    2.0645E-01   -90.78
       3.6000    -1.8400     0.0000     6.5651E-12  -150.91    3.3555E-12    29.09    2.0419E-01  -122.80
       3.6500    -1.8400     0.0000     6.4407E-12   177.01    3.2468E-12    -2.99    2.0196E-01  -154.90
       3.7000    -1.8400     0.0000     6.3193E-12   144.84    3.1425E-12   -35.16    1.9978E-01   172.90
       3.7500    -1.8400     0.0000     6.2006E-12   112.58    3.0424E-12   -67.42    1.9764E-01   140.62
       3.8000    -1.8400     0.0000     6.0847E-12    80.24    2.9463E-12   -99.76    1.9553E-01   108.25
       3.8500    -1.8400     0.0000     5.9714E-12    47.82    2.8539E-12  -132.18    1.9347E-01    75.80
       3.9000    -1.8400     0.0000     5.8608E-12    15.31    2.7651E-12  -164.69    1.9145E-01    43.27
       3.9500    -1.8400     0.0000     5.7528E-12   -17.27    2.6798E-12   162.73    1.8946E-01    10.67
       4.0000    -1.8400     0.0000     5.6473E-12   -49.92    2.5978E-12   130.08    1.8751E-01   -22.01
      -1.0000    -1.8000     0.0000     1.3817E-11    14.64    2.4871E-11    14.64    4.0033E-01  -134.81
      -0.9500    -1.8000     0.0000     1.3593E-11    31.71    2.5755E-11    31.71    4.0500E-01  -117.68
      -0.9000    -1.8000     0.0000     1.3322E-11    48.09    2.6643E-11    48.09    4.0958E-01  -101.25
      -0.8500    -1.8000     0.0000     1.3001E-11    63.75    2.7531E-11    63.75    4.1406E-01   -85.53
      -0.8000    -1.8000     0.0000     1.2629E-11    78.67    2.8415E-11    78.67    4.1842E-01   -70.55
      -0.7500    -1.8000     0.0000     1.2203E-11    92.84    2.9288E-11    92.84    4.2264E-01   -56.33
      -0.7000    -1.8000     0.0000     1.1724E-11   106.22    3.0147E-11   106.22    4.2671E-01   -42.90
      -0.6500    -1.8000     0.0000     1.1189E-11   118.79    3.0985E-11   118.79    4.3061E-01   -30.28
      -0.6000    -1.8000     0.0000     1.0599E-11   130.53    3.1796E-11   130.53    4.3432E-01   -18.49
      -0.5500    -1.8000     0.0000     9.9531E-12   141.43    3.2574E-11   141.43    4.3781E-01    -7.55
      -0.5000    -1.8000     0.0000     9.2534E-12   151.45    3.3312E-11   151.45    4.4108E-01     2.51
      -0.4500    -1.8000     0.0000     8.5011E-12   160.58    3.4005E-11   160.58    4.4410E-01    11.68
      -0.4000    -1.8000     0.0000     7.6988E-12   168.81    3.4645E-11   168.81    4.4685E-01    19.94
      -0.3500    -1.8000     0.0000     6.8496E-12   176.11    3.5226E-11   176.11    4.4932E-01    27.27
      -0.3000    -1.8000     0.0000     5.9573E-12  -177.53    3.5744E-11  -177.53    4.5150E-01    33.65
      -0.2500    -1.8000     0.0000     5.0266E-12  -172.13    3.6191E-11  -172.13    4.5337E-01    39.08
      -0.2000    -1.8000     0.0000     4.0628E-12  -167.69    3.6565E-11  -167.69    4.5491E-01    43.54
      -0.1500    -1.8000     0.0000     3.0716E-12  -164.23    3.6860E-11  -164.23    4.5612E-01    47.02
      -0.1000    -1.8000     0.0000     2.0596E-12  -161.75    3.7073E-11  -161.75    4.5700E-01    49.51
      -0.0500    -1.8000     0.0000     1.0334E-12  -160.26    3.7201E-11  -160.26    4.5752E-01    51.00
       0.0000    -1.8000     0.0000     6.6045E-27    20.23    3.7245E-11  -159.77    4.5770E-01    51.50
       0.0500    -1.8000     0.0000     1.0334E-12    19.74    3.7201E-11  -160.26    4.5752E-01    51.00
       0.1000    -1.8000     0.0000     2.0596E-12    18.25    3.7073E-11  -161.75    4.5700E-01    49.51
       0.1500    -1.8000     0.0000     3.0716E-12    15.77    3.6860E-11  -164.23    4.5612E-01    47.02
       0.2000    -1.8000     0.0000     4.0628E-12    12.31    3.6565E-11  -167.69    4.5491E-01    43.54
       0.2500    -1.8000     0.0000     5.0266E-12     7.87    3.6191E-11  -172.13    4.5337E-01    39.08
       0.3000    -1.8000     0.0000     5.9573E-12     2.47    3.5744E-11  -177.53    4.5150E-01    33.65
       0.3500    -1.8000     0.0000     6.8496E-12    -3.89    3.5226E-11   176.11    4.4932E-01    27.27
       0.4000    -1.8000     0.0000     7.6988E-12   -11.19    3.4645E-11   168.81    4.4685E-01    19.94
       0.4500    -1.8000     0.0000     8.5011E-12   -19.42    3.4005E-11   160.58    4.4410E-01    11.68
       0.5000    -1.8000     0.0000     9.2534E-12   -28.55    3.3312E-11   151.45    4.4108E-01     2.51
       0.5500    -1.8000     0.0000     9.9531E-12   -38.57    3.2574E-11   141.43    4.3781E-01    -7.55
       0.6000    -1.8000     0.0000     1.0599E-11   -49.47    3.1796E-11   130.53    4.3432E-01   -18.49
       0.6500    -1.8000     0.0000     1.1189E-11   -61.21    3.0985E-11   118.79    4.3061E-01   -30.28
       0.7000    -1.8000     0.0000     1.1724E-11   -73.78    3.0147E-11   106.22    4.2671E-01   -42.90
       0.7500    -1.8000     0.0000     1.2203E-11   -87.16    2.9288E-11    92.84    4.2264E-01   -56.33
       0.8000    -1.8000     0.0000     1.2629E-11  -101.33    2.8415E-11    78.67    4.1842E-01   -70.55
       0.8500    -1.8000     0.0000     1.3001E-11  -116.25    2.7531E-11    63.75    4.1406E-01   -85.53
       0.9000    -1.8000     0.0000     1.3322E-11  -131.91    2.6643E-11    48.09    4.0958E-01  -101.25
       0.9500    -1.8000     0.0000     1.3593E-11  -148.29    2.5755E-11    31.71    4.0500E-01  -117.68
       1.0000    -1.8000     0.0000     1.3817E-11  -165.36    2.4871E-11    14.64    4.0033E-01  -134.81
       1.0500    -1.8000     0.0000     1.3997E-11   176.91    2.3995E-11    -3.09    3.9560E-01  -152.60
       1.1000    -1.8000     0.0000     1.4135E-11   158.53    2.3131E-11   -21.47    3.9081E-01  -171.04
       1.1500    -1.8000     0.0000     1.4234E-11   139.53    2.2280E-11   -40.47    3.8598E-01   169.91
       1.2000    -1.8000     0.0000     1.4297E-11   119.94    2.1445E-11   -60.06    3.8112E-01   150.25
       1.2500    -1.8000     0.0000     1.4326E-11    99.76    2.0630E-11   -80.24    3.7624E-01   130.01
       1.3000    -1.8000     0.0000     1.4325E-11    79.03    1.9834E-11  -100.97    3.7136E-01   109.23
       1.3500    -1.8000     0.0000     1.4295E-11    57.77    1.9060E-11  -122.23    3.6648E-01    87.90
       1.4000    -1.8000     0.0000     1.4240E-11    36.00    1.8309E-11  -144.00    3.6162E-01    66.07
       1.4500    -1.8000     0.0000     1.4162E-11    13.73    1.7581E-11  -166.27    3.5678E-01    43.74
       1.5000    -1.8000     0.0000     1.4064E-11    -9.01    1.6876E-11   170.99    3.5197E-01    20.94
       1.5500    -1.8000     0.0000     1.3947E-11   -32.20    1.6196E-11   147.80    3.4720E-01    -2.31
       1.6000    -1.8000     0.0000     1.3814E-11   -55.83    1.5541E-11   124.17    3.4246E-01   -26.00
       1.6500    -1.8000     0.0000     1.3667E-11   -79.88    1.4909E-11   100.12    3.3778E-01   -50.11
       1.7000    -1.8000     0.0000     1.3508E-11  -104.33    1.4302E-11    75.67    3.3314E-01   -74.61
       1.7500    -1.8000     0.0000     1.3338E-11  -129.17    1.3719E-11    50.83    3.2856E-01   -99.51
       1.8000    -1.8000     0.0000     1.3159E-11  -154.37    1.3159E-11    25.63    3.2404E-01  -124.77
       1.8500    -1.8000     0.0000     1.2972E-11  -179.94    1.2621E-11     0.06    3.1959E-01  -150.39
       1.9000    -1.8000     0.0000     1.2779E-11   154.16    1.2107E-11   -25.84    3.1519E-01  -176.35
       1.9500    -1.8000     0.0000     1.2581E-11   127.93    1.1613E-11   -52.07    3.1086E-01   157.37
       2.0000    -1.8000     0.0000     1.2379E-11   101.39    1.1141E-11   -78.61    3.0660E-01   130.78
       2.0500    -1.8000     0.0000     1.2174E-11    74.55    1.0689E-11  -105.45    3.0241E-01   103.88
       2.1000    -1.8000     0.0000     1.1967E-11    47.41    1.0257E-11  -132.59    2.9829E-01    76.70
       2.1500    -1.8000     0.0000     1.1758E-11    20.00    9.8439E-12  -160.00    2.9424E-01    49.24
       2.2000    -1.8000     0.0000     1.1549E-11    -7.67    9.4489E-12   172.33    2.9026E-01    21.51
       2.2500    -1.8000     0.0000     1.1339E-11   -35.60    9.0715E-12   144.40    2.8636E-01    -6.47
       2.3000    -1.8000     0.0000     1.1130E-11   -63.78    8.7108E-12   116.22    2.8252E-01   -34.69
       2.3500    -1.8000     0.0000     1.0923E-11   -92.19    8.3663E-12    87.81    2.7875E-01   -63.15
       2.4000    -1.8000     0.0000     1.0716E-11  -120.83    8.0371E-12    59.17    2.7506E-01   -91.84
       2.4500    -1.8000     0.0000     1.0512E-11  -149.69    7.7228E-12    30.31    2.7143E-01  -120.74
       2.5000    -1.8000     0.0000     1.0309E-11  -178.75    7.4225E-12     1.25    2.6787E-01  -149.85
       2.5500    -1.8000     0.0000     1.0109E-11   151.98    7.1357E-12   -28.02    2.6439E-01  -179.16
       2.6000    -1.8000     0.0000     9.9114E-12   122.52    6.8617E-12   -57.48    2.6097E-01   151.34
       2.6500    -1.8000     0.0000     9.7167E-12    92.88    6.6000E-12   -87.12    2.5761E-01   121.65
       2.7000    -1.8000     0.0000     9.5251E-12    63.05    6.3500E-12  -116.95    2.5432E-01    91.79
       2.7500    -1.8000     0.0000     9.3365E-12    33.06    6.1112E-12  -146.94    2.5110E-01    61.75
       2.8000    -1.8000     0.0000     9.1513E-12     2.89    5.8830E-12  -177.11    2.4794E-01    31.55
       2.8500    -1.8000     0.0000     8.9693E-12   -27.43    5.6648E-12   152.57    2.4484E-01     1.19
       2.9000    -1.8000     0.0000     8.7908E-12   -57.90    5.4564E-12   122.10    2.4181E-01   -29.32
       2.9500    -1.8000     0.0000     8.6157E-12   -88.53    5.2571E-12    91.47    2.3883E-01   -59.98
       3.0000    -1.8000     0.0000     8.4441E-12  -119.29    5.0665E-12    60.71    2.3592E-01   -90.78
       3.0500    -1.8000     0.0000     8.2761E-12  -150.19    4.8842E-12    29.81    2.3306E-01  -121.72
       3.1000    -1.8000     0.0000     8.1115E-12   178.77    4.7099E-12    -1.23    2.3026E-01  -152.79
       3.1500    -1.8000     0.0000     7.9504E-12   147.61    4.5431E-12   -32.39    2.2751E-01   176.01
       3.2000    -1.8000     0.0000     7.7929E-12   116.32    4.3835E-12   -63.68    2.2482E-01   144.69
       3.2500    -1.8000     0.0000     7.6388E-12    84.92    4.2307E-12   -95.08    2.2218E-01   113.25
       3.3000    -1.8000     0.0000     7.4881E-12    53.40    4.0844E-12  -126.60    2.1959E-01    81.70
       3.3500    -1.8000     0.0000     7.3408E-12    21.76    3.9443E-12  -158.24    2.1706E-01    50.04
       3.4000    -1.8000     0.0000     7.1969E-12    -9.97    3.8101E-12   170.03    2.1457E-01    18.27
       3.4500    -1.8000     0.0000     7.0563E-12   -41.82    3.6816E-12   138.18    2.1213E-01   -13.60
       3.5000    -1.8000     0.0000     6.9190E-12   -73.76    3.5583E-12   106.24    2.0974E-01   -45.57
       3.5500    -1.8000     0.0000     6.7848E-12  -105.79    3.4402E-12    74.21    2.0740E-01   -77.64
       3.6000    -1.8000     0.0000     6.6538E-12  -137.93    3.3269E-12    42.07    2.0510E-01  -109.80
       3.6500    -1.8000     0.0000     6.5259E-12  -170.15    3.2182E-12     9.85    2.0285E-01  -142.05
       3.7000    -1.8000     0.0000     6.4010E-12   157.54    3.1140E-12   -22.46    2.0063E-01  -174.39
       3.7500    -1.8000     0.0000     6.2790E-12   125.15    3.0139E-12   -54.85    1.9846E-01   153.19
       3.8000    -1.8000     0.0000     6.1600E-12    92.67    2.9179E-12   -87.33    1.9634E-01   120.69
       3.8500    -1.8000     0.0000     6.0438E-12    60.12    2.8257E-12  -119.88    1.9425E-01    88.11
       3.9000    -1.8000     0.0000     5.9304E-12    27.49    2.7371E-12  -152.51    1.9220E-01    55.45
       3.9500    -1.8000     0.0000     5.8196E-12    -5.22    2.6520E-12   174.78    1.9019E-01    22.72
       4.0000    -1.8000     0.0000     5.7116E-12   -38.00    2.5702E-12   142.00    1.8822E-01   -10.08
      -1.0000    -1.7600     0.0000     1.4544E-11    39.64    2.5598E-11    39.64    4.0720E-01  -109.73
      -0.9500    -1.7600     0.0000     1.4326E-11    57.00    2.6540E-11    57.00    4.1212E-01   -92.30
      -0.9000    -1.7600     0.0000     1.4057E-11    73.66    2.7489E-11    73.66    4.1694E-01   -75.58
      -0.8500    -1.7600     0.0000     1.3735E-11    89.61    2.8440E-11    89.61    4.2167E-01   -59.57
      -0.8000    -1.7600     0.0000     1.3358E-11   104.81    2.9387E-11   104.81    4.2628E-01   -44.32
      -0.7500    -1.7600     0.0000     1.2923E-11   119.24    3.0326E-11   119.24    4.3075E-01   -29.83
      -0.7000    -1.7600     0.0000     1.2429E-11   132.88    3.1251E-11   132.88    4.3506E-01   -16.14
      -0.6500    -1.7600     0.0000     1.1875E-11   145.70    3.2155E-11   145.70    4.3920E-01    -3.27
      -0.6000    -1.7600     0.0000     1.1261E-11   157.67    3.3031E-11   157.67    4.4313E-01     8.76
      -0.5500    -1.7600     0.0000     1.0585E-11   168.79    3.3873E-11   168.79    4.4684E-01    19.92
      -0.5000    -1.7600     0.0000     9.8505E-12   179.02    3.4674E-11   179.02    4.5032E-01    30.19
      -0.4500    -1.7600     0.0000     9.0577E-12  -171.66    3.5426E-11  -171.66    4.5353E-01    39.56
      -0.4000    -1.7600     0.0000     8.2095E-12  -163.26    3.6122E-11  -163.26    4.5646E-01    47.99
      -0.3500    -1.7600     0.0000     7.3093E-12  -155.80    3.6755E-11  -155.80    4.5910E-01    55.48
      -0.3000    -1.7600     0.0000     6.3612E-12  -149.31    3.7319E-11  -149.31    4.6142E-01    62.00
      -0.2500    -1.7600     0.0000     5.3704E-12  -143.78    3.7808E-11  -143.78    4.6342E-01    67.55
      -0.2000    -1.7600     0.0000     4.3427E-12  -139.25    3.8216E-11  -139.25    4.6507E-01    72.11
      -0.1500    -1.7600     0.0000     3.2845E-12  -135.71    3.8538E-11  -135.71    4.6636E-01    75.66
      -0.1000    -1.7600     0.0000     2.2029E-12  -133.18    3.8771E-11  -133.18    4.6730E-01    78.21
      -0.0500    -1.7600     0.0000     1.1054E-12  -131.65    3.8912E-11  -131.65    4.6786E-01    79.74
       0.0000    -1.7600     0.0000     7.0655E-27    48.85    3.8959E-11  -131.15    4.6805E-01    80.25
       0.0500    -1.7600     0.0000     1.1054E-12    48.35    3.8912E-11  -131.65    4.6786E-01    79.74
       0.1000    -1.7600     0.0000     2.2029E-12    46.82    3.8771E-11  -133.18    4.6730E-01    78.21
       0.1500    -1.7600     0.0000     3.2845E-12    44.29    3.8538E-11  -135.71    4.6636E-01    75.66
       0.2000    -1.7600     0.0000     4.3427E-12    40.75    3.8216E-11  -139.25    4.6507E-01    72.11
       0.2500    -1.7600     0.0000     5.3704E-12    36.22    3.7808E-11  -143.78    4.6342E-01    67.55
       0.3000    -1.7600     0.0000     6.3612E-12    30.69    3.7319E-11  -149.31    4.6142E-01    62.00
       0.3500    -1.7600     0.0000     7.3093E-12    24.20    3.6755E-11  -155.80    4.5910E-01    55.48
       0.4000    -1.7600     0.0000     8.2095E-12    16.74    3.6122E-11  -163.26    4.5646E-01    47.99
       0.4500    -1.7600     0.0000     9.0577E-12     8.34    3.5426E-11  -171.66    4.5353E-01    39.56
       0.5000    -1.7600     0.0000     9.8505E-12    -0.98    3.4674E-11   179.02    4.5032E-01    30.19
       0.5500    -1.7600     0.0000     1.0585E-11   -11.21    3.3873E-11   168.79    4.4684E-01    19.92
       0.6000    -1.7600     0.0000     1.1261E-11   -22.33    3.3031E-11   157.67    4.4313E-01     8.76
       0.6500    -1.7600     0.0000     1.1875E-11   -34.30    3.2155E-11   145.70    4.3920E-01    -3.27
       0.7000    -1.7600     0.0000     1.2429E-11   -47.12    3.1251E-11   132.88    4.3506E-01   -16.14
       0.7500    -1.7600     0.0000     1.2923E-11   -60.76    3.0326E-11   119.24    4.3075E-01   -29.83
       0.8000    -1.7600     0.0000     1.3358E-11   -75.19    2.9387E-11   104.81    4.2628E-01   -44.32
       0.8500    -1.7600     0.0000     1.3735E-11   -90.39    2.8440E-11    89.61    4.2167E-01   -59.57
       0.9000    -1.7600     0.0000     1.4057E-11  -106.34    2.7489E-11    73.66    4.1694E-01   -75.58
       0.9500    -1.7600     0.0000     1.4326E-11  -123.00    2.6540E-11    57.00    4.1212E-01   -92.30
       1.0000    -1.7600     0.0000     1.4544E-11  -140.36    2.5598E-11    39.64    4.0720E-01  -109.73
       1.0500    -1.7600     0.0000     1.4716E-11  -158.40    2.4666E-11    21.60    4.0222E-01  -127.82
       1.1000    -1.7600     0.0000     1.4843E-11  -177.08    2.3748E-11     2.92    3.9719E-01  -146.56
       1.1500    -1.7600     0.0000     1.4928E-11   163.62    2.2847E-11   -16.38    3.9212E-01  -165.93
       1.2000    -1.7600     0.0000     1.4976E-11   143.72    2.1964E-11   -36.28    3.8703E-01   174.10
       1.2500    -1.7600     0.0000     1.4988E-11   123.24    2.1103E-11   -56.76    3.8193E-01   153.56
       1.3000    -1.7600     0.0000     1.4969E-11   102.20    2.0265E-11   -77.80    3.7682E-01   132.46
       1.3500    -1.7600     0.0000     1.4920E-11    80.63    1.9452E-11   -99.37    3.7173E-01   110.83
       1.4000    -1.7600     0.0000     1.4846E-11    58.56    1.8664E-11  -121.44    3.6666E-01    88.69
       1.4500    -1.7600     0.0000     1.4748E-11    35.98    1.7901E-11  -144.02    3.6162E-01    66.05
       1.5000    -1.7600     0.0000     1.4629E-11    12.94    1.7165E-11  -167.06    3.5661E-01    42.95
       1.5500    -1.7600     0.0000     1.4492E-11   -10.55    1.6456E-11   169.45    3.5165E-01    19.39
       1.6000    -1.7600     0.0000     1.4339E-11   -34.48    1.5773E-11   145.52    3.4673E-01    -4.60
       1.6500    -1.7600     0.0000     1.4172E-11   -58.82    1.5117E-11   121.18    3.4187E-01   -29.00
       1.7000    -1.7600     0.0000     1.3993E-11   -83.56    1.4487E-11    96.44    3.3707E-01   -53.80
       1.7500    -1.7600     0.0000     1.3803E-11  -108.69    1.3882E-11    71.31    3.3233E-01   -78.98
       1.8000    -1.7600     0.0000     1.3605E-11  -134.18    1.3303E-11    45.82    3.2765E-01  -104.53
       1.8500    -1.7600     0.0000     1.3400E-11  -160.02    1.2748E-11    19.98    3.2305E-01  -130.43
       1.9000    -1.7600     0.0000     1.3188E-11   173.80    1.2217E-11    -6.20    3.1851E-01  -156.66
       1.9500    -1.7600     0.0000     1.2973E-11   147.30    1.1709E-11   -32.70    3.1405E-01   176.78
       2.0000    -1.7600     0.0000     1.2754E-11   120.49    1.1223E-11   -59.51    3.0966E-01   149.92
       2.0500    -1.7600     0.0000     1.2532E-11    93.38    1.0759E-11   -86.62    3.0534E-01   122.76
       2.1000    -1.7600     0.0000     1.2309E-11    65.99    1.0316E-11  -114.01    3.0110E-01    95.31
       2.1500    -1.7600     0.0000     1.2085E-11    38.33    9.8928E-12  -141.67    2.9694E-01    67.60
       2.2000    -1.7600     0.0000     1.1861E-11    10.41    9.4888E-12  -169.59    2.9285E-01    39.62
       2.2500    -1.7600     0.0000     1.1638E-11   -17.77    9.1032E-12   162.23    2.8884E-01    11.39
       2.3000    -1.7600     0.0000     1.1415E-11   -46.19    8.7352E-12   133.81    2.8490E-01   -17.07
       2.3500    -1.7600     0.0000     1.1195E-11   -74.84    8.3840E-12   105.16    2.8104E-01   -45.77
       2.4000    -1.7600     0.0000     1.0976E-11  -103.71    8.0489E-12    76.29    2.7726E-01   -74.68
       2.4500    -1.7600     0.0000     1.0759E-11  -132.79    7.7292E-12    47.21    2.7354E-01  -103.81
       2.5000    -1.7600     0.0000     1.0546E-11  -162.08    7.4241E-12    17.92    2.6990E-01  -133.15
       2.5500    -1.7600     0.0000     1.0335E-11   168.44    7.1330E-12   -11.56    2.6634E-01  -162.67
       2.6000    -1.7600     0.0000     1.0127E-11   138.77    6.8552E-12   -41.23    2.6284E-01   167.61
       2.6500    -1.7600     0.0000     9.9226E-12   108.91    6.5901E-12   -71.09    2.5942E-01   137.71
       2.7000    -1.7600     0.0000     9.7217E-12    78.88    6.3371E-12  -101.12    2.5606E-01   107.64
       2.7500    -1.7600     0.0000     9.5243E-12    48.68    6.0956E-12  -131.32    2.5277E-01    77.40
       2.8000    -1.7600     0.0000     9.3306E-12    18.32    5.8650E-12  -161.68    2.4955E-01    47.00
       2.8500    -1.7600     0.0000     9.1407E-12   -12.19    5.6448E-12   167.81    2.4639E-01    16.45
       2.9000    -1.7600     0.0000     8.9545E-12   -42.86    5.4345E-12   137.14    2.4330E-01   -14.26
       2.9500    -1.7600     0.0000     8.7722E-12   -73.66    5.2336E-12   106.34    2.4027E-01   -45.10
       3.0000    -1.7600     0.0000     8.5937E-12  -104.61    5.0417E-12    75.39    2.3730E-01   -76.09
       3.0500    -1.7600     0.0000     8.4191E-12  -135.69    4.8582E-12    44.31    2.3439E-01  -107.20
       3.1000    -1.7600     0.0000     8.2483E-12  -166.90    4.6829E-12    13.10    2.3154E-01  -138.45
       3.1500    -1.7600     0.0000     8.0813E-12   161.76    4.5153E-12   -18.24    2.2875E-01  -169.82
       3.2000    -1.7600     0.0000     7.9181E-12   130.31    4.3549E-12   -49.69    2.2601E-01   158.69
[...]
      -0.2500     1.9600     0.0000     3.9100E-12    74.30    3.0654E-11  -105.70    4.1713E-01   -74.94
      -0.2000     1.9600     0.0000     3.1552E-12    78.38    3.0921E-11  -101.62    4.1833E-01   -70.84
      -0.1500     1.9600     0.0000     2.3825E-12    81.57    3.1132E-11   -98.43    4.1928E-01   -67.64
      -0.1000     1.9600     0.0000     1.5961E-12    83.85    3.1283E-11   -96.15    4.1995E-01   -65.36
      -0.0500     1.9600     0.0000     8.0039E-13    85.22    3.1375E-11   -94.78    4.2036E-01   -63.98
       0.0000     1.9600     0.0000     5.1145E-27   -94.33    3.1406E-11   -94.33    4.2050E-01   -63.52
       0.0500     1.9600     0.0000     8.0039E-13   -94.78    3.1375E-11   -94.78    4.2036E-01   -63.98
       0.1000     1.9600     0.0000     1.5961E-12   -96.15    3.1283E-11   -96.15    4.1995E-01   -65.36
       0.1500     1.9600     0.0000     2.3825E-12   -98.43    3.1132E-11   -98.43    4.1928E-01   -67.64
       0.2000     1.9600     0.0000     3.1552E-12  -101.62    3.0921E-11  -101.62    4.1833E-01   -70.84
       0.2500     1.9600     0.0000     3.9100E-12  -105.70    3.0654E-11  -105.70    4.1713E-01   -74.94
       0.3000     1.9600     0.0000     4.6428E-12  -110.68    3.0333E-11  -110.68    4.1568E-01   -79.94
       0.3500     1.9600     0.0000     5.3500E-12  -116.54    2.9960E-11  -116.54    4.1397E-01   -85.82
       0.4000     1.9600     0.0000     6.0285E-12  -123.27    2.9540E-11  -123.27    4.1204E-01   -92.57
       0.4500     1.9600     0.0000     6.6754E-12  -130.86    2.9075E-11  -130.86    4.0988E-01  -100.19
       0.5000     1.9600     0.0000     7.2882E-12  -139.30    2.8570E-11  -139.30    4.0750E-01  -108.66
       0.5500     1.9600     0.0000     7.8651E-12  -148.57    2.8028E-11  -148.57    4.0492E-01  -117.96
       0.6000     1.9600     0.0000     8.4044E-12  -158.66    2.7454E-11  -158.66    4.0215E-01  -128.08
       0.6500     1.9600     0.0000     8.9052E-12  -169.54    2.6853E-11  -169.54    3.9920E-01  -139.01
       0.7000     1.9600     0.0000     9.3668E-12   178.79    2.6227E-11   178.79    3.9609E-01  -150.72
       0.7500     1.9600     0.0000     9.7889E-12   166.35    2.5582E-11   166.35    3.9283E-01  -163.19
       0.8000     1.9600     0.0000     1.0172E-11   153.17    2.4920E-11   153.17    3.8943E-01  -176.41
       0.8500     1.9600     0.0000     1.0515E-11   139.26    2.4247E-11   139.26    3.8591E-01   169.64
       0.9000     1.9600     0.0000     1.0821E-11   124.65    2.3566E-11   124.65    3.8227E-01   154.98
       0.9500     1.9600     0.0000     1.1090E-11   109.35    2.2880E-11   109.35    3.7854E-01   139.63
       1.0000     1.9600     0.0000     1.1322E-11    93.38    2.2192E-11    93.38    3.7472E-01   123.61
       1.0500     1.9600     0.0000     1.1520E-11    76.76    2.1505E-11    76.76    3.7083E-01   106.94
       1.1000     1.9600     0.0000     1.1686E-11    59.51    2.0821E-11    59.51    3.6688E-01    89.65
       1.1500     1.9600     0.0000     1.1819E-11    41.66    2.0144E-11    41.66    3.6287E-01    71.74
       1.2000     1.9600     0.0000     1.1924E-11    23.21    1.9475E-11    23.21    3.5883E-01    53.25
       1.2500     1.9600     0.0000     1.2000E-11     4.20    1.8817E-11     4.20    3.5475E-01    34.18
       1.3000     1.9600     0.0000     1.2051E-11   -15.36    1.8169E-11   -15.36    3.5065E-01    14.57
       1.3500     1.9600     0.0000     1.2078E-11   -35.46    1.7535E-11   -35.46    3.4653E-01    -5.58
       1.4000     1.9600     0.0000     1.2082E-11   -56.07    1.6915E-11   -56.07    3.4241E-01   -26.24
       1.4500     1.9600     0.0000     1.2066E-11   -77.17    1.6310E-11   -77.17    3.3830E-01   -47.39
       1.5000     1.9600     0.0000     1.2031E-11   -98.75    1.5721E-11   -98.75    3.3419E-01   -69.03
       1.5500     1.9600     0.0000     1.1980E-11  -120.80    1.5148E-11  -120.80    3.3009E-01   -91.12
       1.6000     1.9600     0.0000     1.1912E-11  -143.28    1.4592E-11  -143.28    3.2602E-01  -113.66
       1.6500     1.9600     0.0000     1.1831E-11  -166.20    1.4054E-11  -166.20    3.2197E-01  -136.62
       1.7000     1.9600     0.0000     1.1737E-11   170.48    1.3532E-11   170.48    3.1794E-01  -160.00
       1.7500     1.9600     0.0000     1.1632E-11   146.75    1.3028E-11   146.75    3.1396E-01   176.23
       1.8000     1.9600     0.0000     1.1517E-11   122.65    1.2541E-11   122.65    3.1001E-01   152.08
       1.8500     1.9600     0.0000     1.1394E-11    98.18    1.2071E-11    98.18    3.0610E-01   127.56
       1.9000     1.9600     0.0000     1.1262E-11    73.35    1.1618E-11    73.35    3.0223E-01   102.68
       1.9500     1.9600     0.0000     1.1125E-11    48.18    1.1182E-11    48.18    2.9841E-01    77.46
       2.0000     1.9600     0.0000     1.0981E-11    22.68    1.0762E-11    22.68    2.9463E-01    51.92
       2.0500     1.9600     0.0000     1.0833E-11    -3.13    1.0358E-11    -3.13    2.9091E-01    26.06
       2.1000     1.9600     0.0000     1.0681E-11   -29.25    9.9694E-12   -29.25    2.8724E-01    -0.10
       2.1500     1.9600     0.0000     1.0526E-11   -55.66    9.5961E-12   -55.66    2.8361E-01   -26.56
       2.2000     1.9600     0.0000     1.0369E-11   -82.35    9.2376E-12   -82.35    2.8005E-01   -53.29
       2.2500     1.9600     0.0000     1.0209E-11  -109.31    8.8934E-12  -109.31    2.7653E-01   -80.30
       2.3000     1.9600     0.0000     1.0048E-11  -136.54    8.5630E-12  -136.54    2.7307E-01  -107.57
       2.3500     1.9600     0.0000     9.8867E-12  -164.02    8.2459E-12  -164.02    2.6967E-01  -135.09
       2.4000     1.9600     0.0000     9.7245E-12   168.26    7.9417E-12   168.26    2.6632E-01  -162.85
       2.4500     1.9600     0.0000     9.5624E-12   140.31    7.6499E-12   140.31    2.6302E-01   169.16
       2.5000     1.9600     0.0000     9.4007E-12   112.13    7.3701E-12   112.13    2.5978E-01   140.94
       2.5500     1.9600     0.0000     9.2396E-12    83.74    7.1018E-12    83.74    2.5660E-01   112.50
       2.6000     1.9600     0.0000     9.0795E-12    55.13    6.8445E-12    55.13    2.5347E-01    83.86
       2.6500     1.9600     0.0000     8.9206E-12    26.33    6.5979E-12    26.33    2.5039E-01    55.02
       2.7000     1.9600     0.0000     8.7631E-12    -2.67    6.3614E-12    -2.67    2.4737E-01    25.98
       2.7500     1.9600     0.0000     8.6073E-12   -31.86    6.1346E-12   -31.86    2.4440E-01    -3.25
       2.8000     1.9600     0.0000     8.4532E-12   -61.23    5.9173E-12   -61.23    2.4148E-01   -32.65
       2.8500     1.9600     0.0000     8.3011E-12   -90.77    5.7088E-12   -90.77    2.3862E-01   -62.23
       2.9000     1.9600     0.0000     8.1511E-12  -120.48    5.5090E-12  -120.48    2.3581E-01   -91.98
       2.9500     1.9600     0.0000     8.0032E-12  -150.36    5.3174E-12  -150.36    2.3304E-01  -121.88
       3.0000     1.9600     0.0000     7.8575E-12   179.61    5.1336E-12   179.61    2.3033E-01  -151.95
       3.0500     1.9600     0.0000     7.7142E-12   149.43    4.9573E-12   149.43    2.2767E-01   177.84
       3.1000     1.9600     0.0000     7.5733E-12   119.10    4.7883E-12   119.10    2.2506E-01   147.48
       3.1500     1.9600     0.0000     7.4347E-12    88.64    4.6261E-12    88.64    2.2249E-01   116.98
       3.2000     1.9600     0.0000     7.2987E-12    58.03    4.4704E-12    58.03    2.1997E-01    86.34
       3.2500     1.9600     0.0000     7.1651E-12    27.29    4.3211E-12    27.29    2.1750E-01    55.57
       3.3000     1.9600     0.0000     7.0340E-12    -3.57    4.1777E-12    -3.57    2.1507E-01    24.68
       3.3500     1.9600     0.0000     6.9054E-12   -34.56    4.0401E-12   -34.56    2.1268E-01    -6.34
       3.4000     1.9600     0.0000     6.7792E-12   -65.67    3.9080E-12   -65.67    2.1034E-01   -37.47
       3.4500     1.9600     0.0000     6.6556E-12   -96.89    3.7812E-12   -96.89    2.0805E-01   -68.72
       3.5000     1.9600     0.0000     6.5345E-12  -128.22    3.6593E-12  -128.22    2.0579E-01  -100.09
       3.5500     1.9600     0.0000     6.4158E-12  -159.66    3.5422E-12  -159.66    2.0357E-01  -131.55
       3.6000     1.9600     0.0000     6.2995E-12   168.79    3.4297E-12   168.79    2.0140E-01  -163.13
       3.6500     1.9600     0.0000     6.1857E-12   137.14    3.3216E-12   137.14    1.9926E-01   165.20
       3.7000     1.9600     0.0000     6.0742E-12   105.40    3.2177E-12   105.40    1.9716E-01   133.43
       3.7500     1.9600     0.0000     5.9651E-12    73.56    3.1178E-12    73.56    1.9511E-01   101.56
       3.8000     1.9600     0.0000     5.8584E-12    41.62    3.0217E-12    41.62    1.9308E-01    69.60
       3.8500     1.9600     0.0000     5.7539E-12     9.60    2.9292E-12     9.60    1.9110E-01    37.56
       3.9000     1.9600     0.0000     5.6516E-12   -22.51    2.8403E-12   -22.51    1.8914E-01     5.42
       3.9500     1.9600     0.0000     5.5516E-12   -54.70    2.7547E-12   -54.70    1.8723E-01   -26.79
       4.0000     1.9600     0.0000     5.4537E-12   -86.97    2.6723E-12   -86.97    1.8534E-01   -59.09
      -1.0000     2.0000     0.0000     1.0788E-11  -112.23    2.1576E-11    67.77    3.6876E-01    97.93
      -0.9500     2.0000     0.0000     1.0556E-11   -96.52    2.2224E-11    83.48    3.7240E-01   113.69
      -0.9000     2.0000     0.0000     1.0291E-11   -81.46    2.2868E-11    98.54    3.7595E-01   128.78
      -0.8500     2.0000     0.0000     9.9905E-12   -67.09    2.3507E-11   112.91    3.7940E-01   143.20
      -0.8000     2.0000     0.0000     9.6549E-12   -53.42    2.4137E-11   126.58    3.8275E-01   156.91
      -0.7500     2.0000     0.0000     9.2832E-12   -40.47    2.4755E-11   139.53    3.8598E-01   169.91
      -0.7000     2.0000     0.0000     8.8752E-12   -28.25    2.5358E-11   151.75    3.8907E-01  -177.84
      -0.6500     2.0000     0.0000     8.4308E-12   -16.79    2.5941E-11   163.21    3.9202E-01  -166.34
      -0.6000     2.0000     0.0000     7.9503E-12    -6.10    2.6501E-11   173.90    3.9481E-01  -155.61
      -0.5500     2.0000     0.0000     7.4345E-12     3.81    2.7034E-11  -176.19    3.9742E-01  -145.68
      -0.5000     2.0000     0.0000     6.8843E-12    12.90    2.7537E-11  -167.10    3.9986E-01  -136.55
      -0.4500     2.0000     0.0000     6.3013E-12    21.18    2.8006E-11  -158.82    4.0211E-01  -128.24
      -0.4000     2.0000     0.0000     5.6873E-12    28.63    2.8436E-11  -151.37    4.0415E-01  -120.77
      -0.3500     2.0000     0.0000     5.0445E-12    35.24    2.8826E-11  -144.76    4.0598E-01  -114.14
      -0.3000     2.0000     0.0000     4.3755E-12    40.98    2.9170E-11  -139.02    4.0758E-01  -108.38
      -0.2500     2.0000     0.0000     3.6834E-12    45.86    2.9467E-11  -134.14    4.0895E-01  -103.48
      -0.2000     2.0000     0.0000     2.9714E-12    49.87    2.9714E-11  -130.13    4.1008E-01   -99.46
      -0.1500     2.0000     0.0000     2.2431E-12    52.99    2.9908E-11  -127.01    4.1097E-01   -96.33
      -0.1000     2.0000     0.0000     1.5024E-12    55.23    3.0048E-11  -124.77    4.1161E-01   -94.08
      -0.0500     2.0000     0.0000     7.5331E-13    56.57    3.0132E-11  -123.43    4.1199E-01   -92.74
       0.0000     2.0000     0.0000     4.8135E-27  -122.98    3.0161E-11  -122.98    4.1212E-01   -92.29
       0.0500     2.0000     0.0000     7.5331E-13  -123.43    3.0132E-11  -123.43    4.1199E-01   -92.74
       0.1000     2.0000     0.0000     1.5024E-12  -124.77    3.0048E-11  -124.77    4.1161E-01   -94.08
       0.1500     2.0000     0.0000     2.2431E-12  -127.01    2.9908E-11  -127.01    4.1097E-01   -96.33
       0.2000     2.0000     0.0000     2.9714E-12  -130.13    2.9714E-11  -130.13    4.1008E-01   -99.46
       0.2500     2.0000     0.0000     3.6834E-12  -134.14    2.9467E-11  -134.14    4.0895E-01  -103.48
       0.3000     2.0000     0.0000     4.3755E-12  -139.02    2.9170E-11  -139.02    4.0758E-01  -108.38
       0.3500     2.0000     0.0000     5.0445E-12  -144.76    2.8826E-11  -144.76    4.0598E-01  -114.14
       0.4000     2.0000     0.0000     5.6873E-12  -151.37    2.8436E-11  -151.37    4.0415E-01  -120.77
       0.4500     2.0000     0.0000     6.3013E-12  -158.82    2.8006E-11  -158.82    4.0211E-01  -128.24
       0.5000     2.0000     0.0000     6.8843E-12  -167.10    2.7537E-11  -167.10    3.9986E-01  -136.55
       0.5500     2.0000     0.0000     7.4345E-12  -176.19    2.7034E-11  -176.19    3.9742E-01  -145.68
       0.6000     2.0000     0.0000     7.9503E-12   173.90    2.6501E-11   173.90    3.9481E-01  -155.61
       0.6500     2.0000     0.0000     8.4308E-12   163.21    2.5941E-11   163.21    3.9202E-01  -166.34
       0.7000     2.0000     0.0000     8.8752E-12   151.75    2.5358E-11   151.75    3.8907E-01  -177.84
       0.7500     2.0000     0.0000     9.2832E-12   139.53    2.4755E-11   139.53    3.8598E-01   169.91
       0.8000     2.0000     0.0000     9.6549E-12   126.58    2.4137E-11   126.58    3.8275E-01   156.91
       0.8500     2.0000     0.0000     9.9905E-12   112.91    2.3507E-11   112.91    3.7940E-01   143.20
       0.9000     2.0000     0.0000     1.0291E-11    98.54    2.2868E-11    98.54    3.7595E-01   128.78
       0.9500     2.0000     0.0000     1.0556E-11    83.48    2.2224E-11    83.48    3.7240E-01   113.69
       1.0000     2.0000     0.0000     1.0788E-11    67.77    2.1576E-11    67.77    3.6876E-01    97.93
       1.0500     2.0000     0.0000     1.0988E-11    51.41    2.0929E-11    51.41    3.6505E-01    81.52
       1.1000     2.0000     0.0000     1.1156E-11    34.43    2.0284E-11    34.43    3.6128E-01    64.49
       1.1500     2.0000     0.0000     1.1295E-11    16.84    1.9644E-11    16.84    3.5745E-01    46.86
       1.2000     2.0000     0.0000     1.1406E-11    -1.33    1.9011E-11    -1.33    3.5358E-01    28.64
       1.2500     2.0000     0.0000     1.1491E-11   -20.07    1.8386E-11   -20.07    3.4968E-01     9.85
       1.3000     2.0000     0.0000     1.1551E-11   -39.36    1.7771E-11   -39.36    3.4575E-01    -9.49
       1.3500     2.0000     0.0000     1.1588E-11   -59.18    1.7168E-11   -59.18    3.4180E-01   -29.36
       1.4000     2.0000     0.0000     1.1604E-11   -79.51    1.6577E-11   -79.51    3.3785E-01   -49.74
       1.4500     2.0000     0.0000     1.1599E-11  -100.34    1.5999E-11  -100.34    3.3389E-01   -70.61
       1.5000     2.0000     0.0000     1.1577E-11  -121.64    1.5436E-11  -121.64    3.2994E-01   -91.97
       1.5500     2.0000     0.0000     1.1538E-11  -143.41    1.4887E-11  -143.41    3.2599E-01  -113.78
       1.6000     2.0000     0.0000     1.1483E-11  -165.62    1.4354E-11  -165.62    3.2207E-01  -136.04
       1.6500     2.0000     0.0000     1.1415E-11   171.74    1.3836E-11   171.74    3.1816E-01  -158.73
       1.7000     2.0000     0.0000     1.1334E-11   148.68    1.3335E-11   148.68    3.1428E-01   178.16
       1.7500     2.0000     0.0000     1.1243E-11   125.23    1.2849E-11   125.23    3.1042E-01   154.66
       1.8000     2.0000     0.0000     1.1141E-11   101.39    1.2379E-11   101.39    3.0660E-01   130.78
       1.8500     2.0000     0.0000     1.1031E-11    77.18    1.1925E-11    77.18    3.0282E-01   106.52
       1.9000     2.0000     0.0000     1.0912E-11    52.62    1.1487E-11    52.62    2.9907E-01    81.91
       1.9500     2.0000     0.0000     1.0788E-11    27.71    1.1064E-11    27.71    2.9537E-01    56.95
       2.0000     2.0000     0.0000     1.0657E-11     2.46    1.0657E-11     2.46    2.9171E-01    31.67
       2.0500     2.0000     0.0000     1.0521E-11   -23.10    1.0264E-11   -23.10    2.8809E-01     6.06
       2.1000     2.0000     0.0000     1.0381E-11   -48.96    9.8867E-12   -48.96    2.8452E-01   -19.85
       2.1500     2.0000     0.0000     1.0238E-11   -75.13    9.5233E-12   -75.13    2.8100E-01   -46.06
       2.2000     2.0000     0.0000     1.0091E-11  -101.58    9.1738E-12  -101.58    2.7753E-01   -72.55
       2.2500     2.0000     0.0000     9.9426E-12  -128.30    8.8379E-12  -128.30    2.7411E-01   -99.32
       2.3000     2.0000     0.0000     9.7924E-12  -155.30    8.5151E-12  -155.30    2.7074E-01  -126.35
       2.3500     2.0000     0.0000     9.6409E-12   177.46    8.2050E-12   177.46    2.6742E-01  -153.64
       2.4000     2.0000     0.0000     9.4887E-12   149.97    7.9072E-12   149.97    2.6415E-01   178.83
       2.4500     2.0000     0.0000     9.3361E-12   122.24    7.6213E-12   122.24    2.6093E-01   151.06
       2.5000     2.0000     0.0000     9.1835E-12    94.28    7.3468E-12    94.28    2.5777E-01   123.06
       2.5500     2.0000     0.0000     9.0313E-12    66.10    7.0833E-12    66.10    2.5466E-01    94.84
       2.6000     2.0000     0.0000     8.8797E-12    37.71    6.8305E-12    37.71    2.5160E-01    66.41
       2.6500     2.0000     0.0000     8.7289E-12     9.11    6.5879E-12     9.11    2.4859E-01    37.78
       2.7000     2.0000     0.0000     8.5793E-12   -19.68    6.3550E-12   -19.68    2.4563E-01     8.95
       2.7500     2.0000     0.0000     8.4310E-12   -48.67    6.1316E-12   -48.67    2.4272E-01   -20.07
       2.8000     2.0000     0.0000     8.2841E-12   -77.84    5.9172E-12   -77.84    2.3986E-01   -49.28
       2.8500     2.0000     0.0000     8.1389E-12  -107.19    5.7115E-12  -107.19    2.3706E-01   -78.66
       2.9000     2.0000     0.0000     7.9955E-12  -136.70    5.5141E-12  -136.70    2.3430E-01  -108.22
       2.9500     2.0000     0.0000     7.8539E-12  -166.39    5.3247E-12  -166.39    2.3159E-01  -137.93
       3.0000     2.0000     0.0000     7.7143E-12   163.77    5.1429E-12   163.77    2.2893E-01  -167.81
       3.0500     2.0000     0.0000     7.5768E-12   133.77    4.9684E-12   133.77    2.2631E-01   162.16
       3.1000     2.0000     0.0000     7.4414E-12   103.62    4.8009E-12   103.62    2.2374E-01   131.98
       3.1500     2.0000     0.0000     7.3082E-12    73.32    4.6401E-12    73.32    2.2122E-01   101.65
       3.2000     2.0000     0.0000     7.1772E-12    42.89    4.4857E-12    42.89    2.1874E-01    71.19
       3.2500     2.0000     0.0000     7.0484E-12    12.32    4.3375E-12    12.32    2.1631E-01    40.59
       3.3000     2.0000     0.0000     6.9220E-12   -18.38    4.1951E-12   -18.38    2.1392E-01     9.86
       3.3500     2.0000     0.0000     6.7978E-12   -49.20    4.0584E-12   -49.20    2.1158E-01   -20.99
       3.4000     2.0000     0.0000     6.6759E-12   -80.15    3.9270E-12   -80.15    2.0927E-01   -51.97
       3.4500     2.0000     0.0000     6.5564E-12  -111.21    3.8008E-12  -111.21    2.0701E-01   -83.06
       3.5000     2.0000     0.0000     6.4391E-12  -142.39    3.6795E-12  -142.39    2.0478E-01  -114.27
       3.5500     2.0000     0.0000     6.3241E-12  -173.68    3.5629E-12  -173.68    2.0260E-01  -145.59
       3.6000     2.0000     0.0000     6.2114E-12   154.92    3.4508E-12   154.92    2.0046E-01  -177.01
       3.6500     2.0000     0.0000     6.1010E-12   123.42    3.3430E-12   123.42    1.9835E-01   151.46
       3.7000     2.0000     0.0000     5.9928E-12    91.82    3.2394E-12    91.82    1.9628E-01   119.84
       3.7500     2.0000     0.0000     5.8868E-12    60.12    3.1396E-12    60.12    1.9425E-01    88.11
       3.8000     2.0000     0.0000     5.7830E-12    28.32    3.0437E-12    28.32    1.9225E-01    56.29
       3.8500     2.0000     0.0000     5.6814E-12    -3.56    2.9514E-12    -3.56    1.9029E-01    24.38
       3.9000     2.0000     0.0000     5.5818E-12   -35.54    2.8625E-12   -35.54    1.8836E-01    -7.62
       3.9500     2.0000     0.0000     5.4844E-12   -67.60    2.7769E-12   -67.60    1.8647E-01   -39.70
       4.0000     2.0000     0.0000     5.3890E-12   -99.74    2.6945E-12   -99.74    1.8461E-01   -71.87






 ***** DATA CARD NO.  6   EN   0   101   101     1 -1.00000E+00 -2.00000E+00  0.00000E+00  5.00000E-02  4.00000E-02  1.00000E+00

 RUN TIME =     0.109
