1



                                 *********************************************

                                    NUMERICAL ELECTROMAGNETICS CODE (NEC-2D)

                                 *********************************************




                                     - - - - COMMENTS - - - -


                          LPDA - Designed from equations (tau=0.915, sigma=0.169)                    
                          F=600MHz, BW=40% (480–720 MHz)                                           
                           Half-lengths (Ln/2)                                                       
                           Spacing dn = 2*sigma*l(n-1)                                               
                           Positions (small → large direction)                                     
                           Dipoles (centered)                                                        
                           Feed at smallest element                                                  
                           Transmission line (alternating phase → IMPORTANT)                       
                           Frequency                                                                 
                           Radiation pattern                                                         
                                                                                                     




                                 - - - STRUCTURE SPECIFICATION - - -

                                     COORDINATES MUST BE INPUT IN
                                     METERS OR BE SCALED TO METERS
                                     BEFORE STRUCTURE INPUT IS ENDED


  WIRE                                                                               NO. OF    FIRST  LAST     TAG
  NO.        X1         Y1         Z1          X2         Y2         Z2      RADIUS   SEG.     SEG.   SEG.     NO.
     1    0.00000    0.00000   -0.16720     0.00000    0.00000    0.16720    0.00600     21        1    21       1
     2    0.11300    0.00000   -0.15300     0.11300    0.00000    0.15300    0.00600     21       22    42       2
     3    0.21640    0.00000   -0.14000     0.21640    0.00000    0.14000    0.00600     21       43    63       3
     4    0.31110    0.00000   -0.12800     0.31110    0.00000    0.12800    0.00600     21       64    84       4
     5    0.39790    0.00000   -0.11700     0.39790    0.00000    0.11700    0.00600     21       85   105       5
     6    0.47750    0.00000   -0.10700     0.47750    0.00000    0.10700    0.00600     21      106   126       6
     7    0.55050    0.00000   -0.09800     0.55050    0.00000    0.09800    0.00600     21      127   147       7
     8    0.61750    0.00000   -0.08970     0.61750    0.00000    0.08970    0.00600     21      148   168       8
     9    0.67890    0.00000   -0.08210     0.67890    0.00000    0.08210    0.00600     21      169   189       9
    10    0.73520    0.00000   -0.07510     0.73520    0.00000    0.07510    0.00600     21      190   210      10
    11    0.78690    0.00000   -0.06850     0.78690    0.00000    0.06850    0.00600     21      211   231      11

   TOTAL SEGMENTS USED=  231     NO. SEG. IN A SYMMETRIC CELL=  231     SYMMETRY FLAG=  0


         - MULTIPLE WIRE JUNCTIONS -
 JUNCTION    SEGMENTS  (- FOR END 1, + FOR END 2)
  NONE




                                 - - - - SEGMENTATION DATA - - - -

                                        COORDINATES IN METERS

                         I+ AND I- INDICATE THE SEGMENTS BEFORE AND AFTER I


  SEG.   COORDINATES OF SEG. CENTER     SEG.     ORIENTATION ANGLES    WIRE    CONNECTION DATA   TAG
  NO.       X         Y         Z       LENGTH     ALPHA     BETA      RADIUS    I-   I    I+    NO.
     1   0.00000   0.00000  -0.15924   0.01592   90.00000   0.00000   0.00600     0    1    2      1
     2   0.00000   0.00000  -0.14331   0.01592   90.00000   0.00000   0.00600     1    2    3      1
     3   0.00000   0.00000  -0.12739   0.01592   90.00000   0.00000   0.00600     2    3    4      1
     4   0.00000   0.00000  -0.11147   0.01592   90.00000   0.00000   0.00600     3    4    5      1
     5   0.00000   0.00000  -0.09554   0.01592   90.00000   0.00000   0.00600     4    5    6      1
     6   0.00000   0.00000  -0.07962   0.01592   90.00000   0.00000   0.00600     5    6    7      1
     7   0.00000   0.00000  -0.06370   0.01592   90.00000   0.00000   0.00600     6    7    8      1
     8   0.00000   0.00000  -0.04777   0.01592   90.00000   0.00000   0.00600     7    8    9      1
     9   0.00000   0.00000  -0.03185   0.01592   90.00000   0.00000   0.00600     8    9   10      1
    10   0.00000   0.00000  -0.01592   0.01592   90.00000   0.00000   0.00600     9   10   11      1
    11   0.00000   0.00000   0.00000   0.01592   90.00000   0.00000   0.00600    10   11   12      1
    12   0.00000   0.00000   0.01592   0.01592   90.00000   0.00000   0.00600    11   12   13      1
    13   0.00000   0.00000   0.03185   0.01592   90.00000   0.00000   0.00600    12   13   14      1
    14   0.00000   0.00000   0.04777   0.01592   90.00000   0.00000   0.00600    13   14   15      1
    15   0.00000   0.00000   0.06370   0.01592   90.00000   0.00000   0.00600    14   15   16      1
    16   0.00000   0.00000   0.07962   0.01592   90.00000   0.00000   0.00600    15   16   17      1
    17   0.00000   0.00000   0.09554   0.01592   90.00000   0.00000   0.00600    16   17   18      1
    18   0.00000   0.00000   0.11147   0.01592   90.00000   0.00000   0.00600    17   18   19      1
    19   0.00000   0.00000   0.12739   0.01592   90.00000   0.00000   0.00600    18   19   20      1
    20   0.00000   0.00000   0.14331   0.01592   90.00000   0.00000   0.00600    19   20   21      1
    21   0.00000   0.00000   0.15924   0.01592   90.00000   0.00000   0.00600    20   21    0      1
    22   0.11300   0.00000  -0.14571   0.01457   90.00000   0.00000   0.00600     0   22   23      2
    23   0.11300   0.00000  -0.13114   0.01457   90.00000   0.00000   0.00600    22   23   24      2
    24   0.11300   0.00000  -0.11657   0.01457   90.00000   0.00000   0.00600    23   24   25      2
    25   0.11300   0.00000  -0.10200   0.01457   90.00000   0.00000   0.00600    24   25   26      2
    26   0.11300   0.00000  -0.08743   0.01457   90.00000   0.00000   0.00600    25   26   27      2
    27   0.11300   0.00000  -0.07286   0.01457   90.00000   0.00000   0.00600    26   27   28      2
    28   0.11300   0.00000  -0.05829   0.01457   90.00000   0.00000   0.00600    27   28   29      2
    29   0.11300   0.00000  -0.04371   0.01457   90.00000   0.00000   0.00600    28   29   30      2
    30   0.11300   0.00000  -0.02914   0.01457   90.00000   0.00000   0.00600    29   30   31      2
    31   0.11300   0.00000  -0.01457   0.01457   90.00000   0.00000   0.00600    30   31   32      2
    32   0.11300   0.00000   0.00000   0.01457   90.00000   0.00000   0.00600    31   32   33      2
    33   0.11300   0.00000   0.01457   0.01457   90.00000   0.00000   0.00600    32   33   34      2
    34   0.11300   0.00000   0.02914   0.01457   90.00000   0.00000   0.00600    33   34   35      2
    35   0.11300   0.00000   0.04371   0.01457   90.00000   0.00000   0.00600    34   35   36      2
    36   0.11300   0.00000   0.05829   0.01457   90.00000   0.00000   0.00600    35   36   37      2
    37   0.11300   0.00000   0.07286   0.01457   90.00000   0.00000   0.00600    36   37   38      2
    38   0.11300   0.00000   0.08743   0.01457   90.00000   0.00000   0.00600    37   38   39      2
    39   0.11300   0.00000   0.10200   0.01457   90.00000   0.00000   0.00600    38   39   40      2
    40   0.11300   0.00000   0.11657   0.01457   90.00000   0.00000   0.00600    39   40   41      2
    41   0.11300   0.00000   0.13114   0.01457   90.00000   0.00000   0.00600    40   41   42      2
    42   0.11300   0.00000   0.14571   0.01457   90.00000   0.00000   0.00600    41   42    0      2
    43   0.21640   0.00000  -0.13333   0.01333   90.00000   0.00000   0.00600     0   43   44      3
    44   0.21640   0.00000  -0.12000   0.01333   90.00000   0.00000   0.00600    43   44   45      3
    45   0.21640   0.00000  -0.10667   0.01333   90.00000   0.00000   0.00600    44   45   46      3
    46   0.21640   0.00000  -0.09333   0.01333   90.00000   0.00000   0.00600    45   46   47      3
    47   0.21640   0.00000  -0.08000   0.01333   90.00000   0.00000   0.00600    46   47   48      3
    48   0.21640   0.00000  -0.06667   0.01333   90.00000   0.00000   0.00600    47   48   49      3
    49   0.21640   0.00000  -0.05333   0.01333   90.00000   0.00000   0.00600    48   49   50      3
    50   0.21640   0.00000  -0.04000   0.01333   90.00000   0.00000   0.00600    49   50   51      3
    51   0.21640   0.00000  -0.02667   0.01333   90.00000   0.00000   0.00600    50   51   52      3
    52   0.21640   0.00000  -0.01333   0.01333   90.00000   0.00000   0.00600    51   52   53      3
    53   0.21640   0.00000   0.00000   0.01333   90.00000   0.00000   0.00600    52   53   54      3
    54   0.21640   0.00000   0.01333   0.01333   90.00000   0.00000   0.00600    53   54   55      3
    55   0.21640   0.00000   0.02667   0.01333   90.00000   0.00000   0.00600    54   55   56      3
    56   0.21640   0.00000   0.04000   0.01333   90.00000   0.00000   0.00600    55   56   57      3
    57   0.21640   0.00000   0.05333   0.01333   90.00000   0.00000   0.00600    56   57   58      3
    58   0.21640   0.00000   0.06667   0.01333   90.00000   0.00000   0.00600    57   58   59      3
    59   0.21640   0.00000   0.08000   0.01333   90.00000   0.00000   0.00600    58   59   60      3
    60   0.21640   0.00000   0.09333   0.01333   90.00000   0.00000   0.00600    59   60   61      3
    61   0.21640   0.00000   0.10667   0.01333   90.00000   0.00000   0.00600    60   61   62      3
    62   0.21640   0.00000   0.12000   0.01333   90.00000   0.00000   0.00600    61   62   63      3
    63   0.21640   0.00000   0.13333   0.01333   90.00000   0.00000   0.00600    62   63    0      3
    64   0.31110   0.00000  -0.12190   0.01219   90.00000   0.00000   0.00600     0   64   65      4
    65   0.31110   0.00000  -0.10971   0.01219   90.00000   0.00000   0.00600    64   65   66      4
    66   0.31110   0.00000  -0.09752   0.01219   90.00000   0.00000   0.00600    65   66   67      4
    67   0.31110   0.00000  -0.08533   0.01219   90.00000   0.00000   0.00600    66   67   68      4
    68   0.31110   0.00000  -0.07314   0.01219   90.00000   0.00000   0.00600    67   68   69      4
    69   0.31110   0.00000  -0.06095   0.01219   90.00000   0.00000   0.00600    68   69   70      4
    70   0.31110   0.00000  -0.04876   0.01219   90.00000   0.00000   0.00600    69   70   71      4
    71   0.31110   0.00000  -0.03657   0.01219   90.00000   0.00000   0.00600    70   71   72      4
    72   0.31110   0.00000  -0.02438   0.01219   90.00000   0.00000   0.00600    71   72   73      4
    73   0.31110   0.00000  -0.01219   0.01219   90.00000   0.00000   0.00600    72   73   74      4
    74   0.31110   0.00000   0.00000   0.01219   90.00000   0.00000   0.00600    73   74   75      4
    75   0.31110   0.00000   0.01219   0.01219   90.00000   0.00000   0.00600    74   75   76      4
    76   0.31110   0.00000   0.02438   0.01219   90.00000   0.00000   0.00600    75   76   77      4
    77   0.31110   0.00000   0.03657   0.01219   90.00000   0.00000   0.00600    76   77   78      4
    78   0.31110   0.00000   0.04876   0.01219   90.00000   0.00000   0.00600    77   78   79      4
    79   0.31110   0.00000   0.06095   0.01219   90.00000   0.00000   0.00600    78   79   80      4
    80   0.31110   0.00000   0.07314   0.01219   90.00000   0.00000   0.00600    79   80   81      4
    81   0.31110   0.00000   0.08533   0.01219   90.00000   0.00000   0.00600    80   81   82      4
    82   0.31110   0.00000   0.09752   0.01219   90.00000   0.00000   0.00600    81   82   83      4
    83   0.31110   0.00000   0.10971   0.01219   90.00000   0.00000   0.00600    82   83   84      4
    84   0.31110   0.00000   0.12190   0.01219   90.00000   0.00000   0.00600    83   84    0      4
    85   0.39790   0.00000  -0.11143   0.01114   90.00000   0.00000   0.00600     0   85   86      5
    86   0.39790   0.00000  -0.10029   0.01114   90.00000   0.00000   0.00600    85   86   87      5
    87   0.39790   0.00000  -0.08914   0.01114   90.00000   0.00000   0.00600    86   87   88      5
    88   0.39790   0.00000  -0.07800   0.01114   90.00000   0.00000   0.00600    87   88   89      5
    89   0.39790   0.00000  -0.06686   0.01114   90.00000   0.00000   0.00600    88   89   90      5
    90   0.39790   0.00000  -0.05571   0.01114   90.00000   0.00000   0.00600    89   90   91      5
    91   0.39790   0.00000  -0.04457   0.01114   90.00000   0.00000   0.00600    90   91   92      5
    92   0.39790   0.00000  -0.03343   0.01114   90.00000   0.00000   0.00600    91   92   93      5
    93   0.39790   0.00000  -0.02229   0.01114   90.00000   0.00000   0.00600    92   93   94      5
    94   0.39790   0.00000  -0.01114   0.01114   90.00000   0.00000   0.00600    93   94   95      5
    95   0.39790   0.00000   0.00000   0.01114   90.00000   0.00000   0.00600    94   95   96      5
    96   0.39790   0.00000   0.01114   0.01114   90.00000   0.00000   0.00600    95   96   97      5
    97   0.39790   0.00000   0.02229   0.01114   90.00000   0.00000   0.00600    96   97   98      5
    98   0.39790   0.00000   0.03343   0.01114   90.00000   0.00000   0.00600    97   98   99      5
    99   0.39790   0.00000   0.04457   0.01114   90.00000   0.00000   0.00600    98   99  100      5
   100   0.39790   0.00000   0.05571   0.01114   90.00000   0.00000   0.00600    99  100  101      5
   101   0.39790   0.00000   0.06686   0.01114   90.00000   0.00000   0.00600   100  101  102      5
   102   0.39790   0.00000   0.07800   0.01114   90.00000   0.00000   0.00600   101  102  103      5
   103   0.39790   0.00000   0.08914   0.01114   90.00000   0.00000   0.00600   102  103  104      5
   104   0.39790   0.00000   0.10029   0.01114   90.00000   0.00000   0.00600   103  104  105      5
   105   0.39790   0.00000   0.11143   0.01114   90.00000   0.00000   0.00600   104  105    0      5
   106   0.47750   0.00000  -0.10190   0.01019   90.00000   0.00000   0.00600     0  106  107      6
   107   0.47750   0.00000  -0.09171   0.01019   90.00000   0.00000   0.00600   106  107  108      6
   108   0.47750   0.00000  -0.08152   0.01019   90.00000   0.00000   0.00600   107  108  109      6
   109   0.47750   0.00000  -0.07133   0.01019   90.00000   0.00000   0.00600   108  109  110      6
   110   0.47750   0.00000  -0.06114   0.01019   90.00000   0.00000   0.00600   109  110  111      6
   111   0.47750   0.00000  -0.05095   0.01019   90.00000   0.00000   0.00600   110  111  112      6
   112   0.47750   0.00000  -0.04076   0.01019   90.00000   0.00000   0.00600   111  112  113      6
   113   0.47750   0.00000  -0.03057   0.01019   90.00000   0.00000   0.00600   112  113  114      6
   114   0.47750   0.00000  -0.02038   0.01019   90.00000   0.00000   0.00600   113  114  115      6
   115   0.47750   0.00000  -0.01019   0.01019   90.00000   0.00000   0.00600   114  115  116      6
   116   0.47750   0.00000   0.00000   0.01019   90.00000   0.00000   0.00600   115  116  117      6
   117   0.47750   0.00000   0.01019   0.01019   90.00000   0.00000   0.00600   116  117  118      6
   118   0.47750   0.00000   0.02038   0.01019   90.00000   0.00000   0.00600   117  118  119      6
   119   0.47750   0.00000   0.03057   0.01019   90.00000   0.00000   0.00600   118  119  120      6
   120   0.47750   0.00000   0.04076   0.01019   90.00000   0.00000   0.00600   119  120  121      6
   121   0.47750   0.00000   0.05095   0.01019   90.00000   0.00000   0.00600   120  121  122      6
   122   0.47750   0.00000   0.06114   0.01019   90.00000   0.00000   0.00600   121  122  123      6
   123   0.47750   0.00000   0.07133   0.01019   90.00000   0.00000   0.00600   122  123  124      6
   124   0.47750   0.00000   0.08152   0.01019   90.00000   0.00000   0.00600   123  124  125      6
   125   0.47750   0.00000   0.09171   0.01019   90.00000   0.00000   0.00600   124  125  126      6
   126   0.47750   0.00000   0.10190   0.01019   90.00000   0.00000   0.00600   125  126    0      6
   127   0.55050   0.00000  -0.09333   0.00933   90.00000   0.00000   0.00600     0  127  128      7
   128   0.55050   0.00000  -0.08400   0.00933   90.00000   0.00000   0.00600   127  128  129      7
   129   0.55050   0.00000  -0.07467   0.00933   90.00000   0.00000   0.00600   128  129  130      7
   130   0.55050   0.00000  -0.06533   0.00933   90.00000   0.00000   0.00600   129  130  131      7
   131   0.55050   0.00000  -0.05600   0.00933   90.00000   0.00000   0.00600   130  131  132      7
   132   0.55050   0.00000  -0.04667   0.00933   90.00000   0.00000   0.00600   131  132  133      7
   133   0.55050   0.00000  -0.03733   0.00933   90.00000   0.00000   0.00600   132  133  134      7
   134   0.55050   0.00000  -0.02800   0.00933   90.00000   0.00000   0.00600   133  134  135      7
   135   0.55050   0.00000  -0.01867   0.00933   90.00000   0.00000   0.00600   134  135  136      7
   136   0.55050   0.00000  -0.00933   0.00933   90.00000   0.00000   0.00600   135  136  137      7
   137   0.55050   0.00000   0.00000   0.00933   90.00000   0.00000   0.00600   136  137  138      7
   138   0.55050   0.00000   0.00933   0.00933   90.00000   0.00000   0.00600   137  138  139      7
   139   0.55050   0.00000   0.01867   0.00933   90.00000   0.00000   0.00600   138  139  140      7
   140   0.55050   0.00000   0.02800   0.00933   90.00000   0.00000   0.00600   139  140  141      7
   141   0.55050   0.00000   0.03733   0.00933   90.00000   0.00000   0.00600   140  141  142      7
   142   0.55050   0.00000   0.04667   0.00933   90.00000   0.00000   0.00600   141  142  143      7
   143   0.55050   0.00000   0.05600   0.00933   90.00000   0.00000   0.00600   142  143  144      7
   144   0.55050   0.00000   0.06533   0.00933   90.00000   0.00000   0.00600   143  144  145      7
   145   0.55050   0.00000   0.07467   0.00933   90.00000   0.00000   0.00600   144  145  146      7
   146   0.55050   0.00000   0.08400   0.00933   90.00000   0.00000   0.00600   145  146  147      7
   147   0.55050   0.00000   0.09333   0.00933   90.00000   0.00000   0.00600   146  147    0      7
   148   0.61750   0.00000  -0.08543   0.00854   90.00000   0.00000   0.00600     0  148  149      8
   149   0.61750   0.00000  -0.07689   0.00854   90.00000   0.00000   0.00600   148  149  150      8
   150   0.61750   0.00000  -0.06834   0.00854   90.00000   0.00000   0.00600   149  150  151      8
   151   0.61750   0.00000  -0.05980   0.00854   90.00000   0.00000   0.00600   150  151  152      8
   152   0.61750   0.00000  -0.05126   0.00854   90.00000   0.00000   0.00600   151  152  153      8
   153   0.61750   0.00000  -0.04271   0.00854   90.00000   0.00000   0.00600   152  153  154      8
   154   0.61750   0.00000  -0.03417   0.00854   90.00000   0.00000   0.00600   153  154  155      8
   155   0.61750   0.00000  -0.02563   0.00854   90.00000   0.00000   0.00600   154  155  156      8
   156   0.61750   0.00000  -0.01709   0.00854   90.00000   0.00000   0.00600   155  156  157      8
   157   0.61750   0.00000  -0.00854   0.00854   90.00000   0.00000   0.00600   156  157  158      8
   158   0.61750   0.00000   0.00000   0.00854   90.00000   0.00000   0.00600   157  158  159      8
   159   0.61750   0.00000   0.00854   0.00854   90.00000   0.00000   0.00600   158  159  160      8
   160   0.61750   0.00000   0.01709   0.00854   90.00000   0.00000   0.00600   159  160  161      8
   161   0.61750   0.00000   0.02563   0.00854   90.00000   0.00000   0.00600   160  161  162      8
   162   0.61750   0.00000   0.03417   0.00854   90.00000   0.00000   0.00600   161  162  163      8
   163   0.61750   0.00000   0.04271   0.00854   90.00000   0.00000   0.00600   162  163  164      8
   164   0.61750   0.00000   0.05126   0.00854   90.00000   0.00000   0.00600   163  164  165      8
   165   0.61750   0.00000   0.05980   0.00854   90.00000   0.00000   0.00600   164  165  166      8
   166   0.61750   0.00000   0.06834   0.00854   90.00000   0.00000   0.00600   165  166  167      8
   167   0.61750   0.00000   0.07689   0.00854   90.00000   0.00000   0.00600   166  167  168      8
   168   0.61750   0.00000   0.08543   0.00854   90.00000   0.00000   0.00600   167  168    0      8
   169   0.67890   0.00000  -0.07819   0.00782   90.00000   0.00000   0.00600     0  169  170      9
   170   0.67890   0.00000  -0.07037   0.00782   90.00000   0.00000   0.00600   169  170  171      9
   171   0.67890   0.00000  -0.06255   0.00782   90.00000   0.00000   0.00600   170  171  172      9
   172   0.67890   0.00000  -0.05473   0.00782   90.00000   0.00000   0.00600   171  172  173      9
   173   0.67890   0.00000  -0.04691   0.00782   90.00000   0.00000   0.00600   172  173  174      9
   174   0.67890   0.00000  -0.03910   0.00782   90.00000   0.00000   0.00600   173  174  175      9
   175   0.67890   0.00000  -0.03128   0.00782   90.00000   0.00000   0.00600   174  175  176      9
   176   0.67890   0.00000  -0.02346   0.00782   90.00000   0.00000   0.00600   175  176  177      9
   177   0.67890   0.00000  -0.01564   0.00782   90.00000   0.00000   0.00600   176  177  178      9
   178   0.67890   0.00000  -0.00782   0.00782   90.00000   0.00000   0.00600   177  178  179      9
   179   0.67890   0.00000   0.00000   0.00782   90.00000   0.00000   0.00600   178  179  180      9
   180   0.67890   0.00000   0.00782   0.00782   90.00000   0.00000   0.00600   179  180  181      9
   181   0.67890   0.00000   0.01564   0.00782   90.00000   0.00000   0.00600   180  181  182      9
   182   0.67890   0.00000   0.02346   0.00782   90.00000   0.00000   0.00600   181  182  183      9
   183   0.67890   0.00000   0.03128   0.00782   90.00000   0.00000   0.00600   182  183  184      9
   184   0.67890   0.00000   0.03910   0.00782   90.00000   0.00000   0.00600   183  184  185      9
   185   0.67890   0.00000   0.04691   0.00782   90.00000   0.00000   0.00600   184  185  186      9
   186   0.67890   0.00000   0.05473   0.00782   90.00000   0.00000   0.00600   185  186  187      9
   187   0.67890   0.00000   0.06255   0.00782   90.00000   0.00000   0.00600   186  187  188      9
   188   0.67890   0.00000   0.07037   0.00782   90.00000   0.00000   0.00600   187  188  189      9
   189   0.67890   0.00000   0.07819   0.00782   90.00000   0.00000   0.00600   188  189    0      9
   190   0.73520   0.00000  -0.07152   0.00715   90.00000   0.00000   0.00600     0  190  191     10
   191   0.73520   0.00000  -0.06437   0.00715   90.00000   0.00000   0.00600   190  191  192     10
   192   0.73520   0.00000  -0.05722   0.00715   90.00000   0.00000   0.00600   191  192  193     10
   193   0.73520   0.00000  -0.05007   0.00715   90.00000   0.00000   0.00600   192  193  194     10
   194   0.73520   0.00000  -0.04291   0.00715   90.00000   0.00000   0.00600   193  194  195     10
   195   0.73520   0.00000  -0.03576   0.00715   90.00000   0.00000   0.00600   194  195  196     10
   196   0.73520   0.00000  -0.02861   0.00715   90.00000   0.00000   0.00600   195  196  197     10
   197   0.73520   0.00000  -0.02146   0.00715   90.00000   0.00000   0.00600   196  197  198     10
   198   0.73520   0.00000  -0.01430   0.00715   90.00000   0.00000   0.00600   197  198  199     10
   199   0.73520   0.00000  -0.00715   0.00715   90.00000   0.00000   0.00600   198  199  200     10
   200   0.73520   0.00000   0.00000   0.00715   90.00000   0.00000   0.00600   199  200  201     10
   201   0.73520   0.00000   0.00715   0.00715   90.00000   0.00000   0.00600   200  201  202     10
   202   0.73520   0.00000   0.01430   0.00715   90.00000   0.00000   0.00600   201  202  203     10
   203   0.73520   0.00000   0.02146   0.00715   90.00000   0.00000   0.00600   202  203  204     10
   204   0.73520   0.00000   0.02861   0.00715   90.00000   0.00000   0.00600   203  204  205     10
   205   0.73520   0.00000   0.03576   0.00715   90.00000   0.00000   0.00600   204  205  206     10
   206   0.73520   0.00000   0.04291   0.00715   90.00000   0.00000   0.00600   205  206  207     10
   207   0.73520   0.00000   0.05007   0.00715   90.00000   0.00000   0.00600   206  207  208     10
   208   0.73520   0.00000   0.05722   0.00715   90.00000   0.00000   0.00600   207  208  209     10
   209   0.73520   0.00000   0.06437   0.00715   90.00000   0.00000   0.00600   208  209  210     10
   210   0.73520   0.00000   0.07152   0.00715   90.00000   0.00000   0.00600   209  210    0     10
   211   0.78690   0.00000  -0.06524   0.00652   90.00000   0.00000   0.00600     0  211  212     11
   212   0.78690   0.00000  -0.05871   0.00652   90.00000   0.00000   0.00600   211  212  213     11
   213   0.78690   0.00000  -0.05219   0.00652   90.00000   0.00000   0.00600   212  213  214     11
   214   0.78690   0.00000  -0.04567   0.00652   90.00000   0.00000   0.00600   213  214  215     11
   215   0.78690   0.00000  -0.03914   0.00652   90.00000   0.00000   0.00600   214  215  216     11
   216   0.78690   0.00000  -0.03262   0.00652   90.00000   0.00000   0.00600   215  216  217     11
   217   0.78690   0.00000  -0.02610   0.00652   90.00000   0.00000   0.00600   216  217  218     11
   218   0.78690   0.00000  -0.01957   0.00652   90.00000   0.00000   0.00600   217  218  219     11
   219   0.78690   0.00000  -0.01305   0.00652   90.00000   0.00000   0.00600   218  219  220     11
   220   0.78690   0.00000  -0.00652   0.00652   90.00000   0.00000   0.00600   219  220  221     11
   221   0.78690   0.00000   0.00000   0.00652   90.00000   0.00000   0.00600   220  221  222     11
   222   0.78690   0.00000   0.00652   0.00652   90.00000   0.00000   0.00600   221  222  223     11
   223   0.78690   0.00000   0.01305   0.00652   90.00000   0.00000   0.00600   222  223  224     11
   224   0.78690   0.00000   0.01957   0.00652   90.00000   0.00000   0.00600   223  224  225     11
   225   0.78690   0.00000   0.02610   0.00652   90.00000   0.00000   0.00600   224  225  226     11
   226   0.78690   0.00000   0.03262   0.00652   90.00000   0.00000   0.00600   225  226  227     11
   227   0.78690   0.00000   0.03914   0.00652   90.00000   0.00000   0.00600   226  227  228     11
   228   0.78690   0.00000   0.04567   0.00652   90.00000   0.00000   0.00600   227  228  229     11
   229   0.78690   0.00000   0.05219   0.00652   90.00000   0.00000   0.00600   228  229  230     11
   230   0.78690   0.00000   0.05871   0.00652   90.00000   0.00000   0.00600   229  230  231     11
   231   0.78690   0.00000   0.06524   0.00652   90.00000   0.00000   0.00600   230  231    0     11






 ***** DATA CARD NO.  1   GN  -1     0     0     0  0.00000E+00  0.00000E+00  0.00000E+00  0.00000E+00  0.00000E+00  0.00000E+00
 ***** DATA CARD NO.  2   EK   0     0     0     0  0.00000E+00  0.00000E+00  0.00000E+00  0.00000E+00  0.00000E+00  0.00000E+00
 ***** DATA CARD NO.  3   EX   0    11    11     0  1.00000E+00  0.00000E+00  0.00000E+00  0.00000E+00  0.00000E+00  0.00000E+00
 ***** DATA CARD NO.  4   TL   1    11     2    11 -5.00000E+01  0.00000E+00  0.00000E+00  0.00000E+00  0.00000E+00  0.00000E+00
 ***** DATA CARD NO.  5   TL   2    11     3    11 -5.00000E+01  0.00000E+00  0.00000E+00  0.00000E+00  0.00000E+00  0.00000E+00
 ***** DATA CARD NO.  6   TL   3    11     4    11 -5.00000E+01  0.00000E+00  0.00000E+00  0.00000E+00  0.00000E+00  0.00000E+00
 ***** DATA CARD NO.  7   TL   4    11     5    11 -5.00000E+01  0.00000E+00  0.00000E+00  0.00000E+00  0.00000E+00  0.00000E+00
 ***** DATA CARD NO.  8   TL   5    11     6    11 -5.00000E+01  0.00000E+00  0.00000E+00  0.00000E+00  0.00000E+00  0.00000E+00
 ***** DATA CARD NO.  9   TL   6    11     7    11 -5.00000E+01  0.00000E+00  0.00000E+00  0.00000E+00  0.00000E+00  0.00000E+00
 ***** DATA CARD NO. 10   TL   7    11     8    11 -5.00000E+01  0.00000E+00  0.00000E+00  0.00000E+00  0.00000E+00  0.00000E+00
 ***** DATA CARD NO. 11   TL   8    11     9    11 -5.00000E+01  0.00000E+00  0.00000E+00  0.00000E+00  0.00000E+00  0.00000E+00
 ***** DATA CARD NO. 12   TL   9    11    10    11 -5.00000E+01  0.00000E+00  0.00000E+00  0.00000E+00  0.00000E+00  0.00000E+00
 ***** DATA CARD NO. 13   TL  10    11    11    11 -5.00000E+01  0.00000E+00  0.00000E+00  0.00000E+00  0.00000E+00  0.00000E+00
 ***** DATA CARD NO. 14   FR   0     0     0     0  7.20000E+02  0.00000E+00  0.00000E+00  0.00000E+00  0.00000E+00  0.00000E+00
 ***** DATA CARD NO. 15   RP   0    37    73  1003 -1.80000E+02  0.00000E+00  5.00000E+00  5.00000E+00  0.00000E+00  0.00000E+00




                                 - - - - - - FREQUENCY - - - - - -

                                    FREQUENCY= 7.2000E+02 MHZ
                                    WAVELENGTH= 4.1639E-01 METERS




                    APPROXIMATE INTEGRATION EMPLOYED FOR SEGMENTS MORE THAN   1.000 WAVELENGTHS APART

                    THE EXTENDED THIN WIRE KERNEL WILL BE USED



                               - - - STRUCTURE IMPEDANCE LOADING - - -

                                   THIS STRUCTURE IS NOT LOADED



                                  - - - ANTENNA ENVIRONMENT - - -

                                            FREE SPACE



                                - - - MATRIX TIMING - - -

                        FILL=    0.047 SEC.,  FACTOR=    0.016 SEC.



                                            - - - NETWORK DATA - - -

      - FROM -    - TO -           TRANSMISSION LINE               -  -  SHUNT ADMITTANCES (MHOS)  -  -              LINE
      TAG  SEG.   TAG  SEG.      IMPEDANCE      LENGTH            - END ONE -                 - END TWO -            TYPE
      NO.   NO.   NO.   NO.         OHMS        METERS         REAL          IMAG.         REAL          IMAG.
        1    11     2    32     5.0000E+01    1.1300E-01    0.0000E+00    0.0000E+00    0.0000E+00    0.0000E+00   CROSSED 
        2    32     3    53     5.0000E+01    1.0340E-01    0.0000E+00    0.0000E+00    0.0000E+00    0.0000E+00   CROSSED 
        3    53     4    74     5.0000E+01    9.4700E-02    0.0000E+00    0.0000E+00    0.0000E+00    0.0000E+00   CROSSED 
        4    74     5    95     5.0000E+01    8.6800E-02    0.0000E+00    0.0000E+00    0.0000E+00    0.0000E+00   CROSSED 
        5    95     6   116     5.0000E+01    7.9600E-02    0.0000E+00    0.0000E+00    0.0000E+00    0.0000E+00   CROSSED 
        6   116     7   137     5.0000E+01    7.3000E-02    0.0000E+00    0.0000E+00    0.0000E+00    0.0000E+00   CROSSED 
        7   137     8   158     5.0000E+01    6.7000E-02    0.0000E+00    0.0000E+00    0.0000E+00    0.0000E+00   CROSSED 
        8   158     9   179     5.0000E+01    6.1400E-02    0.0000E+00    0.0000E+00    0.0000E+00    0.0000E+00   CROSSED 
        9   179    10   200     5.0000E+01    5.6300E-02    0.0000E+00    0.0000E+00    0.0000E+00    0.0000E+00   CROSSED 
       10   200    11   221     5.0000E+01    5.1700E-02    0.0000E+00    0.0000E+00    0.0000E+00    0.0000E+00   CROSSED 



                           - - - STRUCTURE EXCITATION DATA AT NETWORK CONNECTION POINTS - - -

   TAG   SEG.    VOLTAGE (VOLTS)         CURRENT (AMPS)         IMPEDANCE (OHMS)        ADMITTANCE (MHOS)      POWER
   NO.   NO.    REAL        IMAG.       REAL        IMAG.       REAL        IMAG.       REAL        IMAG.     (WATTS)
     1    11 8.87625E-01-2.21212E-01 1.78296E-03 9.01529E-04 3.46512E+02-2.99280E+02 1.65290E-03 1.42760E-03 6.91584E-04
     2    32 1.63556E-01-1.17973E-01 1.98711E-04-5.93011E-04 2.61946E+02 1.88031E+02 2.51941E-03-1.80849E-03 5.12298E-05
     3    53-9.04911E-01 1.98573E-01-9.17019E-04-2.42418E-04 8.68836E+02-4.46223E+02 9.10738E-04 4.67744E-04 3.90841E-04
     4    74-3.66093E-02 1.32054E-01-4.33138E-04 8.71316E-04 1.38274E+02-2.67210E+01 6.97167E-03 1.34725E-03 6.54589E-05
     5    95 9.39712E-01-2.25160E-01-1.23925E-03-5.07710E-03-7.82668E-01 1.84897E+02-2.28933E-05-5.40831E-03-1.06884E-05
     6   116-7.74933E-01 6.77537E-02 8.64328E-04 9.05165E-03-6.83523E-01 8.55471E+01-9.33932E-05-1.16887E-02-2.82567E-05
     7   137 1.23051E-01 1.22771E-01 6.35107E-05-3.53914E-03-3.40546E+01 3.53798E+01-1.41221E-02-1.46716E-02-2.13344E-04
     8   158 4.68079E-01-1.85000E-01 9.32356E-03 4.78346E-03 3.16840E+01-3.60977E+01 1.37343E-02 1.56476E-02 1.73961E-03
     9   179-4.40540E-01-2.84756E-01-2.39324E-03-1.75953E-02 1.92333E+01-2.24213E+01 2.20404E-02 2.56938E-02 3.03234E-03
    10   200-5.60915E-01 6.12310E-01-1.55600E-02-4.49904E-03 2.27670E+01-4.59346E+01 8.66219E-03 1.74768E-02 2.98650E-03
    11   221 1.00000E+00 0.00000E+00 1.07025E-03 2.06003E-02 2.51517E+00-4.84123E+01 1.07025E-03 2.06003E-02 5.35125E-04



                                          - - - ANTENNA INPUT PARAMETERS - - -

   TAG   SEG.    VOLTAGE (VOLTS)         CURRENT (AMPS)         IMPEDANCE (OHMS)        ADMITTANCE (MHOS)      POWER
   NO.   NO.    REAL        IMAG.       REAL        IMAG.       REAL        IMAG.       REAL        IMAG.     (WATTS)
    11   221 1.00000E+00 0.00000E+00 1.84808E-02 1.63380E-02 3.03726E+01-2.68509E+01 1.84808E-02 1.63380E-02 9.24041E-03



                             - - - CURRENTS AND LOCATION - - -

                                 DISTANCES IN WAVELENGTHS


  SEG.  TAG    COORD. OF SEG. CENTER     SEG.            - - - CURRENT (AMPS) - - -
  NO.   NO.     X        Y        Z      LENGTH     REAL        IMAG.       MAG.        PHASE
     1    1   0.0000   0.0000  -0.3824  0.03824  -3.5997E-05 -7.6901E-04  7.6985E-04  -92.680
     2    1   0.0000   0.0000  -0.3442  0.03824  -1.9682E-05 -1.4565E-03  1.4567E-03  -90.774
     3    1   0.0000   0.0000  -0.3059  0.03824   4.7096E-05 -1.9482E-03  1.9488E-03  -88.615
     4    1   0.0000   0.0000  -0.2677  0.03824   1.5553E-04 -2.2869E-03  2.2922E-03  -86.110
     5    1   0.0000   0.0000  -0.2295  0.03824   3.0059E-04 -2.4633E-03  2.4816E-03  -83.043
     6    1   0.0000   0.0000  -0.1912  0.03824   4.7653E-04 -2.4682E-03  2.5137E-03  -79.072
     7    1   0.0000   0.0000  -0.1530  0.03824   6.7721E-04 -2.2946E-03  2.3924E-03  -73.557
     8    1   0.0000   0.0000  -0.1147  0.03824   8.9715E-04 -1.9359E-03  2.1337E-03  -65.136
     9    1   0.0000   0.0000  -0.0765  0.03824   1.1330E-03 -1.3818E-03  1.7869E-03  -50.652
    10    1   0.0000   0.0000  -0.0382  0.03824   1.4140E-03 -4.9672E-04  1.4987E-03  -19.355
    11    1   0.0000   0.0000   0.0000  0.03824   1.7830E-03  9.0153E-04  1.9979E-03   26.823
    12    1   0.0000   0.0000   0.0382  0.03824   1.4140E-03 -4.9672E-04  1.4987E-03  -19.355
    13    1   0.0000   0.0000   0.0765  0.03824   1.1330E-03 -1.3818E-03  1.7869E-03  -50.652
    14    1   0.0000   0.0000   0.1147  0.03824   8.9715E-04 -1.9359E-03  2.1337E-03  -65.136
    15    1   0.0000   0.0000   0.1530  0.03824   6.7721E-04 -2.2946E-03  2.3924E-03  -73.557
    16    1   0.0000   0.0000   0.1912  0.03824   4.7653E-04 -2.4682E-03  2.5137E-03  -79.072
    17    1   0.0000   0.0000   0.2295  0.03824   3.0059E-04 -2.4633E-03  2.4816E-03  -83.043
    18    1   0.0000   0.0000   0.2677  0.03824   1.5553E-04 -2.2869E-03  2.2922E-03  -86.110
    19    1   0.0000   0.0000   0.3059  0.03824   4.7096E-05 -1.9482E-03  1.9488E-03  -88.615
    20    1   0.0000   0.0000   0.3442  0.03824  -1.9682E-05 -1.4565E-03  1.4567E-03  -90.774
    21    1   0.0000   0.0000   0.3824  0.03824  -3.5997E-05 -7.6901E-04  7.6985E-04  -92.680
    22    2   0.2714   0.0000  -0.3499  0.03499  -8.5898E-05 -2.2077E-04  2.3689E-04 -111.260
    23    2   0.2714   0.0000  -0.3150  0.03499  -1.5827E-04 -4.3342E-04  4.6141E-04 -110.061
    24    2   0.2714   0.0000  -0.2800  0.03499  -2.0751E-04 -6.0980E-04  6.4414E-04 -108.793
    25    2   0.2714   0.0000  -0.2450  0.03499  -2.3891E-04 -7.6045E-04  7.9709E-04 -107.441
    26    2   0.2714   0.0000  -0.2100  0.03499  -2.5169E-04 -8.8101E-04  9.1625E-04 -105.944
    27    2   0.2714   0.0000  -0.1750  0.03499  -2.4495E-04 -9.6638E-04  9.9694E-04 -104.223
    28    2   0.2714   0.0000  -0.1400  0.03499  -2.1785E-04 -1.0117E-03  1.0348E-03 -102.153
    29    2   0.2714   0.0000  -0.1050  0.03499  -1.6939E-04 -1.0122E-03  1.0263E-03  -99.500
    30    2   0.2714   0.0000  -0.0700  0.03499  -9.7923E-05 -9.6322E-04  9.6818E-04  -95.805
    31    2   0.2714   0.0000  -0.0350  0.03499   1.5165E-05 -8.3714E-04  8.3728E-04  -88.962
    32    2   0.2714   0.0000   0.0000  0.03499   1.9871E-04 -5.9301E-04  6.2542E-04  -71.475
    33    2   0.2714   0.0000   0.0350  0.03499   1.5165E-05 -8.3714E-04  8.3728E-04  -88.962
    34    2   0.2714   0.0000   0.0700  0.03499  -9.7923E-05 -9.6322E-04  9.6818E-04  -95.805
    35    2   0.2714   0.0000   0.1050  0.03499  -1.6939E-04 -1.0122E-03  1.0263E-03  -99.500
    36    2   0.2714   0.0000   0.1400  0.03499  -2.1785E-04 -1.0117E-03  1.0348E-03 -102.153
    37    2   0.2714   0.0000   0.1750  0.03499  -2.4495E-04 -9.6638E-04  9.9694E-04 -104.223
    38    2   0.2714   0.0000   0.2100  0.03499  -2.5169E-04 -8.8101E-04  9.1625E-04 -105.944
    39    2   0.2714   0.0000   0.2450  0.03499  -2.3891E-04 -7.6045E-04  7.9709E-04 -107.441
    40    2   0.2714   0.0000   0.2800  0.03499  -2.0751E-04 -6.0980E-04  6.4414E-04 -108.793
    41    2   0.2714   0.0000   0.3150  0.03499  -1.5827E-04 -4.3342E-04  4.6141E-04 -110.061
    42    2   0.2714   0.0000   0.3499  0.03499  -8.5898E-05 -2.2077E-04  2.3689E-04 -111.260
    43    3   0.5197   0.0000  -0.3202  0.03202   7.3038E-05  8.3177E-04  8.3497E-04   84.982
    44    3   0.5197   0.0000  -0.2882  0.03202   1.1130E-04  1.5363E-03  1.5404E-03   85.856
    45    3   0.5197   0.0000  -0.2562  0.03202   1.1369E-04  2.0456E-03  2.0488E-03   86.819
    46    3   0.5197   0.0000  -0.2241  0.03202   8.8343E-05  2.4139E-03  2.4155E-03   87.904
    47    3   0.5197   0.0000  -0.1921  0.03202   3.7159E-05  2.6377E-03  2.6379E-03   89.193
    48    3   0.5197   0.0000  -0.1601  0.03202  -3.8320E-05  2.7099E-03  2.7101E-03   90.810
    49    3   0.5197   0.0000  -0.1281  0.03202  -1.3685E-04  2.6223E-03  2.6259E-03   92.987
    50    3   0.5197   0.0000  -0.0961  0.03202  -2.5817E-04  2.3640E-03  2.3780E-03   96.233
    51    3   0.5197   0.0000  -0.0640  0.03202  -4.0380E-04  1.9179E-03  1.9600E-03  101.889
    52    3   0.5197   0.0000  -0.0320  0.03202  -6.0484E-04  1.1352E-03  1.2863E-03  118.049
    53    3   0.5197   0.0000   0.0000  0.03202  -9.1702E-04 -2.4242E-04  9.4852E-04 -165.192
    54    3   0.5197   0.0000   0.0320  0.03202  -6.0484E-04  1.1352E-03  1.2863E-03  118.049
    55    3   0.5197   0.0000   0.0640  0.03202  -4.0380E-04  1.9179E-03  1.9600E-03  101.889
    56    3   0.5197   0.0000   0.0961  0.03202  -2.5817E-04  2.3640E-03  2.3780E-03   96.233
    57    3   0.5197   0.0000   0.1281  0.03202  -1.3685E-04  2.6223E-03  2.6259E-03   92.987
    58    3   0.5197   0.0000   0.1601  0.03202  -3.8320E-05  2.7099E-03  2.7101E-03   90.810
    59    3   0.5197   0.0000   0.1921  0.03202   3.7159E-05  2.6377E-03  2.6379E-03   89.193
    60    3   0.5197   0.0000   0.2241  0.03202   8.8343E-05  2.4139E-03  2.4155E-03   87.904
    61    3   0.5197   0.0000   0.2562  0.03202   1.1369E-04  2.0456E-03  2.0488E-03   86.819
    62    3   0.5197   0.0000   0.2882  0.03202   1.1130E-04  1.5363E-03  1.5404E-03   85.856
    63    3   0.5197   0.0000   0.3202  0.03202   7.3038E-05  8.3177E-04  8.3497E-04   84.982
    64    4   0.7471   0.0000  -0.2928  0.02928   5.3347E-05  1.2854E-04  1.3917E-04   67.460
    65    4   0.7471   0.0000  -0.2635  0.02928   8.9236E-05  2.6279E-04  2.7753E-04   71.244
    66    4   0.7471   0.0000  -0.2342  0.02928   1.0650E-04  3.8976E-04  4.0404E-04   74.718
    67    4   0.7471   0.0000  -0.2049  0.02928   1.0930E-04  5.1307E-04  5.2458E-04   77.973
    68    4   0.7471   0.0000  -0.1757  0.02928   9.7540E-05  6.2837E-04  6.3590E-04   81.177
    69    4   0.7471   0.0000  -0.1464  0.02928   7.0700E-05  7.3061E-04  7.3402E-04   84.473
    70    4   0.7471   0.0000  -0.1171  0.02928   2.8098E-05  8.1492E-04  8.1540E-04   88.025
    71    4   0.7471   0.0000  -0.0878  0.02928  -3.1488E-05  8.7700E-04  8.7757E-04   92.056
    72    4   0.7471   0.0000  -0.0586  0.02928  -1.1022E-04  9.1328E-04  9.1990E-04   96.881
    73    4   0.7471   0.0000  -0.0293  0.02928  -2.2983E-04  9.1570E-04  9.4410E-04  104.090
    74    4   0.7471   0.0000   0.0000  0.02928  -4.3314E-04  8.7132E-04  9.7304E-04  116.432
    75    4   0.7471   0.0000   0.0293  0.02928  -2.2983E-04  9.1570E-04  9.4410E-04  104.090
    76    4   0.7471   0.0000   0.0586  0.02928  -1.1022E-04  9.1328E-04  9.1990E-04   96.881
    77    4   0.7471   0.0000   0.0878  0.02928  -3.1488E-05  8.7700E-04  8.7757E-04   92.056
    78    4   0.7471   0.0000   0.1171  0.02928   2.8098E-05  8.1492E-04  8.1540E-04   88.025
    79    4   0.7471   0.0000   0.1464  0.02928   7.0700E-05  7.3061E-04  7.3402E-04   84.473
    80    4   0.7471   0.0000   0.1757  0.02928   9.7540E-05  6.2837E-04  6.3590E-04   81.177
    81    4   0.7471   0.0000   0.2049  0.02928   1.0930E-04  5.1307E-04  5.2458E-04   77.973
    82    4   0.7471   0.0000   0.2342  0.02928   1.0650E-04  3.8976E-04  4.0404E-04   74.718
    83    4   0.7471   0.0000   0.2635  0.02928   8.9236E-05  2.6279E-04  2.7753E-04   71.244
    84    4   0.7471   0.0000   0.2928  0.02928   5.3347E-05  1.2854E-04  1.3917E-04   67.460
    85    5   0.9556   0.0000  -0.2676  0.02676  -4.2084E-04 -1.6916E-03  1.7432E-03 -103.970
    86    5   0.9556   0.0000  -0.2408  0.02676  -7.7883E-04 -3.1451E-03  3.2401E-03 -103.908
    87    5   0.9556   0.0000  -0.2141  0.02676  -1.0619E-03 -4.3068E-03  4.4357E-03 -103.850
    88    5   0.9556   0.0000  -0.1873  0.02676  -1.2980E-03 -5.2848E-03  5.4418E-03 -103.799
    89    5   0.9556   0.0000  -0.1606  0.02676  -1.4873E-03 -6.0760E-03  6.2554E-03 -103.755
    90    5   0.9556   0.0000  -0.1338  0.02676  -1.6271E-03 -6.6657E-03  6.8614E-03 -103.718
    91    5   0.9556   0.0000  -0.1070  0.02676  -1.7136E-03 -7.0351E-03  7.2408E-03 -103.690
    92    5   0.9556   0.0000  -0.0803  0.02676  -1.7420E-03 -7.1620E-03  7.3708E-03 -103.670
    93    5   0.9556   0.0000  -0.0535  0.02676  -1.7060E-03 -7.0188E-03  7.2231E-03 -103.661
    94    5   0.9556   0.0000  -0.0268  0.02676  -1.5664E-03 -6.4409E-03  6.6286E-03 -103.669
    95    5   0.9556   0.0000   0.0000  0.02676  -1.2392E-03 -5.0771E-03  5.2262E-03 -103.717
    96    5   0.9556   0.0000   0.0268  0.02676  -1.5664E-03 -6.4409E-03  6.6286E-03 -103.669
    97    5   0.9556   0.0000   0.0535  0.02676  -1.7060E-03 -7.0188E-03  7.2231E-03 -103.661
    98    5   0.9556   0.0000   0.0803  0.02676  -1.7420E-03 -7.1620E-03  7.3708E-03 -103.670
    99    5   0.9556   0.0000   0.1070  0.02676  -1.7136E-03 -7.0351E-03  7.2408E-03 -103.690
   100    5   0.9556   0.0000   0.1338  0.02676  -1.6271E-03 -6.6657E-03  6.8614E-03 -103.718
   101    5   0.9556   0.0000   0.1606  0.02676  -1.4873E-03 -6.0760E-03  6.2554E-03 -103.755
   102    5   0.9556   0.0000   0.1873  0.02676  -1.2980E-03 -5.2848E-03  5.4418E-03 -103.799
   103    5   0.9556   0.0000   0.2141  0.02676  -1.0619E-03 -4.3068E-03  4.4357E-03 -103.850
   104    5   0.9556   0.0000   0.2408  0.02676  -7.7883E-04 -3.1451E-03  3.2401E-03 -103.908
   105    5   0.9556   0.0000   0.2676  0.02676  -4.2084E-04 -1.6916E-03  1.7432E-03 -103.970
   106    6   1.1468   0.0000  -0.2447  0.02447   2.2469E-04  2.3445E-03  2.3553E-03   84.526
   107    6   1.1468   0.0000  -0.2203  0.02447   4.1183E-04  4.3109E-03  4.3305E-03   84.543
   108    6   1.1468   0.0000  -0.1958  0.02447   5.6130E-04  5.8957E-03  5.9223E-03   84.562
   109    6   1.1468   0.0000  -0.1713  0.02447   6.8841E-04  7.2548E-03  7.2874E-03   84.579
   110    6   1.1468   0.0000  -0.1468  0.02447   7.9429E-04  8.3951E-03  8.4325E-03   84.595
   111    6   1.1468   0.0000  -0.1224  0.02447   8.7841E-04  9.3055E-03  9.3468E-03   84.607
   112    6   1.1468   0.0000  -0.0979  0.02447   9.3967E-04  9.9691E-03  1.0013E-02   84.615
   113    6   1.1468   0.0000  -0.0734  0.02447   9.7653E-04  1.0365E-02  1.0411E-02   84.618
   114    6   1.1468   0.0000  -0.0489  0.02447   9.8698E-04  1.0467E-02  1.0514E-02   84.613
   115    6   1.1468   0.0000  -0.0245  0.02447   9.5914E-04  1.0139E-02  1.0184E-02   84.596
   116    6   1.1468   0.0000   0.0000  0.02447   8.6433E-04  9.0517E-03  9.0928E-03   84.545
   117    6   1.1468   0.0000   0.0245  0.02447   9.5914E-04  1.0139E-02  1.0184E-02   84.596
   118    6   1.1468   0.0000   0.0489  0.02447   9.8698E-04  1.0467E-02  1.0514E-02   84.613
   119    6   1.1468   0.0000   0.0734  0.02447   9.7653E-04  1.0365E-02  1.0411E-02   84.618
   120    6   1.1468   0.0000   0.0979  0.02447   9.3967E-04  9.9691E-03  1.0013E-02   84.615
   121    6   1.1468   0.0000   0.1224  0.02447   8.7841E-04  9.3055E-03  9.3468E-03   84.607
   122    6   1.1468   0.0000   0.1468  0.02447   7.9429E-04  8.3951E-03  8.4325E-03   84.595
   123    6   1.1468   0.0000   0.1713  0.02447   6.8841E-04  7.2548E-03  7.2874E-03   84.579
   124    6   1.1468   0.0000   0.1958  0.02447   5.6130E-04  5.8957E-03  5.9223E-03   84.562
   125    6   1.1468   0.0000   0.2203  0.02447   4.1183E-04  4.3109E-03  4.3305E-03   84.543
   126    6   1.1468   0.0000   0.2447  0.02447   2.2469E-04  2.3445E-03  2.3553E-03   84.526
   127    7   1.3221   0.0000  -0.2241  0.02241   2.0284E-04 -7.5114E-04  7.7805E-04  -74.888
   128    7   1.3221   0.0000  -0.2017  0.02241   3.3531E-04 -1.3791E-03  1.4193E-03  -76.334
   129    7   1.3221   0.0000  -0.1793  0.02241   4.1420E-04 -1.9004E-03  1.9450E-03  -77.704
   130    7   1.3221   0.0000  -0.1569  0.02241   4.5975E-04 -2.3613E-03  2.4056E-03  -78.982
   131    7   1.3221   0.0000  -0.1345  0.02241   4.7836E-04 -2.7633E-03  2.8044E-03  -80.179
   132    7   1.3221   0.0000  -0.1121  0.02241   4.7438E-04 -3.1026E-03  3.1386E-03  -81.307
   133    7   1.3221   0.0000  -0.0897  0.02241   4.5090E-04 -3.3732E-03  3.4032E-03  -82.386
   134    7   1.3221   0.0000  -0.0672  0.02241   4.0947E-04 -3.5692E-03  3.5926E-03  -83.455
   135    7   1.3221   0.0000  -0.0448  0.02241   3.4993E-04 -3.6838E-03  3.7004E-03  -84.574
   136    7   1.3221   0.0000  -0.0224  0.02241   2.5368E-04 -3.6939E-03  3.7026E-03  -86.071
   137    7   1.3221   0.0000   0.0000  0.02241   6.3511E-05 -3.5391E-03  3.5397E-03  -88.972
   138    7   1.3221   0.0000   0.0224  0.02241   2.5368E-04 -3.6939E-03  3.7026E-03  -86.071
   139    7   1.3221   0.0000   0.0448  0.02241   3.4993E-04 -3.6838E-03  3.7004E-03  -84.574
   140    7   1.3221   0.0000   0.0672  0.02241   4.0947E-04 -3.5692E-03  3.5926E-03  -83.455
   141    7   1.3221   0.0000   0.0897  0.02241   4.5090E-04 -3.3732E-03  3.4032E-03  -82.386
   142    7   1.3221   0.0000   0.1121  0.02241   4.7438E-04 -3.1026E-03  3.1386E-03  -81.307
   143    7   1.3221   0.0000   0.1345  0.02241   4.7836E-04 -2.7633E-03  2.8044E-03  -80.179
   144    7   1.3221   0.0000   0.1569  0.02241   4.5975E-04 -2.3613E-03  2.4056E-03  -78.982
   145    7   1.3221   0.0000   0.1793  0.02241   4.1420E-04 -1.9004E-03  1.9450E-03  -77.704
   146    7   1.3221   0.0000   0.2017  0.02241   3.3531E-04 -1.3791E-03  1.4193E-03  -76.334
   147    7   1.3221   0.0000   0.2241  0.02241   2.0284E-04 -7.5114E-04  7.7805E-04  -74.888
   148    8   1.4830   0.0000  -0.2052  0.02052   1.6911E-03  3.4188E-04  1.7253E-03   11.429
   149    8   1.4830   0.0000  -0.1846  0.02052   3.0472E-03  7.0833E-04  3.1284E-03   13.086
   150    8   1.4830   0.0000  -0.1641  0.02052   4.1760E-03  1.0905E-03  4.3161E-03   14.635
   151    8   1.4830   0.0000  -0.1436  0.02052   5.1865E-03  1.4944E-03  5.3975E-03   16.074
   152    8   1.4830   0.0000  -0.1231  0.02052   6.0914E-03  1.9116E-03  6.3843E-03   17.423
   153    8   1.4830   0.0000  -0.1026  0.02052   6.8897E-03  2.3320E-03  7.2737E-03   18.699
   154    8   1.4830   0.0000  -0.0821  0.02052   7.5763E-03  2.7471E-03  8.0590E-03   19.930
   155    8   1.4830   0.0000  -0.0615  0.02052   8.1469E-03  3.1529E-03  8.7357E-03   21.157
   156    8   1.4830   0.0000  -0.0410  0.02052   8.5994E-03  3.5515E-03  9.3040E-03   22.441
   157    8   1.4830   0.0000  -0.0205  0.02052   8.9591E-03  4.0117E-03  9.8163E-03   24.122
   158    8   1.4830   0.0000   0.0000  0.02052   9.3236E-03  4.7835E-03  1.0479E-02   27.160
   159    8   1.4830   0.0000   0.0205  0.02052   8.9591E-03  4.0117E-03  9.8163E-03   24.122
   160    8   1.4830   0.0000   0.0410  0.02052   8.5994E-03  3.5515E-03  9.3040E-03   22.441
   161    8   1.4830   0.0000   0.0615  0.02052   8.1469E-03  3.1529E-03  8.7357E-03   21.157
   162    8   1.4830   0.0000   0.0821  0.02052   7.5763E-03  2.7471E-03  8.0590E-03   19.930
   163    8   1.4830   0.0000   0.1026  0.02052   6.8897E-03  2.3320E-03  7.2737E-03   18.699
   164    8   1.4830   0.0000   0.1231  0.02052   6.0914E-03  1.9116E-03  6.3843E-03   17.423
   165    8   1.4830   0.0000   0.1436  0.02052   5.1865E-03  1.4944E-03  5.3975E-03   16.074
   166    8   1.4830   0.0000   0.1641  0.02052   4.1760E-03  1.0905E-03  4.3161E-03   14.635
   167    8   1.4830   0.0000   0.1846  0.02052   3.0472E-03  7.0833E-04  3.1284E-03   13.086
   168    8   1.4830   0.0000   0.2052  0.02052   1.6911E-03  3.4188E-04  1.7253E-03   11.429
   169    9   1.6304   0.0000  -0.1878  0.01878  -9.2286E-04 -3.4085E-03  3.5312E-03 -105.150
   170    9   1.6304   0.0000  -0.1690  0.01878  -1.5515E-03 -5.9694E-03  6.1677E-03 -104.570
   171    9   1.6304   0.0000  -0.1502  0.01878  -2.0097E-03 -8.0624E-03  8.3091E-03 -103.997
   172    9   1.6304   0.0000  -0.1314  0.01878  -2.3658E-03 -9.9058E-03  1.0184E-02 -103.432
   173    9   1.6304   0.0000  -0.1127  0.01878  -2.6370E-03 -1.1539E-02  1.1836E-02 -102.873
   174    9   1.6304   0.0000  -0.0939  0.01878  -2.8313E-03 -1.2971E-02  1.3276E-02 -102.313
   175    9   1.6304   0.0000  -0.0751  0.01878  -2.9526E-03 -1.4202E-02  1.4505E-02 -101.745
   176    9   1.6304   0.0000  -0.0563  0.01878  -3.0015E-03 -1.5231E-02  1.5524E-02 -101.148
   177    9   1.6304   0.0000  -0.0376  0.01878  -2.9740E-03 -1.6064E-02  1.6337E-02 -100.489
   178    9   1.6304   0.0000  -0.0188  0.01878  -2.8301E-03 -1.6761E-02  1.6998E-02  -99.584
   179    9   1.6304   0.0000   0.0000  0.01878  -2.3932E-03 -1.7595E-02  1.7757E-02  -97.746
   180    9   1.6304   0.0000   0.0188  0.01878  -2.8301E-03 -1.6761E-02  1.6998E-02  -99.584
   181    9   1.6304   0.0000   0.0376  0.01878  -2.9740E-03 -1.6064E-02  1.6337E-02 -100.489
   182    9   1.6304   0.0000   0.0563  0.01878  -3.0015E-03 -1.5231E-02  1.5524E-02 -101.148
   183    9   1.6304   0.0000   0.0751  0.01878  -2.9526E-03 -1.4202E-02  1.4505E-02 -101.745
   184    9   1.6304   0.0000   0.0939  0.01878  -2.8313E-03 -1.2971E-02  1.3276E-02 -102.313
   185    9   1.6304   0.0000   0.1127  0.01878  -2.6370E-03 -1.1539E-02  1.1836E-02 -102.873
   186    9   1.6304   0.0000   0.1314  0.01878  -2.3658E-03 -9.9058E-03  1.0184E-02 -103.432
   187    9   1.6304   0.0000   0.1502  0.01878  -2.0097E-03 -8.0624E-03  8.3091E-03 -103.997
   188    9   1.6304   0.0000   0.1690  0.01878  -1.5515E-03 -5.9694E-03  6.1677E-03 -104.570
   189    9   1.6304   0.0000   0.1878  0.01878  -9.2286E-04 -3.4085E-03  3.5312E-03 -105.150
   190   10   1.7657   0.0000  -0.1718  0.01718  -3.0121E-03 -3.5422E-04  3.0329E-03 -173.293
   191   10   1.7657   0.0000  -0.1546  0.01718  -5.1434E-03 -6.7019E-04  5.1869E-03 -172.576
   192   10   1.7657   0.0000  -0.1374  0.01718  -6.8850E-03 -9.8538E-04  6.9552E-03 -171.855
   193   10   1.7657   0.0000  -0.1202  0.01718  -8.4154E-03 -1.3129E-03  8.5172E-03 -171.132
   194   10   1.7657   0.0000  -0.1031  0.01718  -9.7764E-03 -1.6519E-03  9.9150E-03 -170.409
   195   10   1.7657   0.0000  -0.0859  0.01718  -1.0982E-02 -1.9988E-03  1.1162E-02 -169.684
   196   10   1.7657   0.0000  -0.0687  0.01718  -1.2036E-02 -2.3509E-03  1.2263E-02 -168.948
   197   10   1.7657   0.0000  -0.0515  0.01718  -1.2945E-02 -2.7095E-03  1.3226E-02 -168.178
   198   10   1.7657   0.0000  -0.0344  0.01718  -1.3723E-02 -3.0847E-03  1.4065E-02 -167.331
   199   10   1.7657   0.0000  -0.0172  0.01718  -1.4446E-02 -3.5457E-03  1.4875E-02 -166.210
   200   10   1.7657   0.0000   0.0000  0.01718  -1.5560E-02 -4.4990E-03  1.6197E-02 -163.873
   201   10   1.7657   0.0000   0.0172  0.01718  -1.4446E-02 -3.5457E-03  1.4875E-02 -166.210
   202   10   1.7657   0.0000   0.0344  0.01718  -1.3723E-02 -3.0847E-03  1.4065E-02 -167.331
   203   10   1.7657   0.0000   0.0515  0.01718  -1.2945E-02 -2.7095E-03  1.3226E-02 -168.178
   204   10   1.7657   0.0000   0.0687  0.01718  -1.2036E-02 -2.3509E-03  1.2263E-02 -168.948
   205   10   1.7657   0.0000   0.0859  0.01718  -1.0982E-02 -1.9988E-03  1.1162E-02 -169.684
   206   10   1.7657   0.0000   0.1031  0.01718  -9.7764E-03 -1.6519E-03  9.9150E-03 -170.409
   207   10   1.7657   0.0000   0.1202  0.01718  -8.4154E-03 -1.3129E-03  8.5172E-03 -171.132
   208   10   1.7657   0.0000   0.1374  0.01718  -6.8850E-03 -9.8538E-04  6.9552E-03 -171.855
   209   10   1.7657   0.0000   0.1546  0.01718  -5.1434E-03 -6.7019E-04  5.1869E-03 -172.576
   210   10   1.7657   0.0000   0.1718  0.01718  -3.0121E-03 -3.5422E-04  3.0329E-03 -173.293
   211   11   1.8898   0.0000  -0.1567  0.01567   1.3147E-04  4.0220E-03  4.0241E-03   88.128
   212   11   1.8898   0.0000  -0.1410  0.01567   2.5928E-04  6.6955E-03  6.7006E-03   87.782
   213   11   1.8898   0.0000  -0.1253  0.01567   3.8996E-04  8.9049E-03  8.9134E-03   87.493
   214   11   1.8898   0.0000  -0.1097  0.01567   5.2102E-04  1.0845E-02  1.0858E-02   87.250
   215   11   1.8898   0.0000  -0.0940  0.01567   6.4769E-04  1.2577E-02  1.2593E-02   87.052
   216   11   1.8898   0.0000  -0.0783  0.01567   7.6501E-04  1.4119E-02  1.4140E-02   86.899
   217   11   1.8898   0.0000  -0.0627  0.01567   8.6836E-04  1.5482E-02  1.5507E-02   86.790
   218   11   1.8898   0.0000  -0.0470  0.01567   9.5367E-04  1.6678E-02  1.6705E-02   86.727
   219   11   1.8898   0.0000  -0.0313  0.01567   1.0174E-03  1.7735E-02  1.7765E-02   86.717
   220   11   1.8898   0.0000  -0.0157  0.01567   1.0569E-03  1.8754E-02  1.8784E-02   86.775
   221   11   1.8898   0.0000   0.0000  0.01567   1.0703E-03  2.0600E-02  2.0628E-02   87.026
   222   11   1.8898   0.0000   0.0157  0.01567   1.0569E-03  1.8754E-02  1.8784E-02   86.775
   223   11   1.8898   0.0000   0.0313  0.01567   1.0174E-03  1.7735E-02  1.7765E-02   86.717
   224   11   1.8898   0.0000   0.0470  0.01567   9.5367E-04  1.6678E-02  1.6705E-02   86.727
   225   11   1.8898   0.0000   0.0627  0.01567   8.6836E-04  1.5482E-02  1.5507E-02   86.790
   226   11   1.8898   0.0000   0.0783  0.01567   7.6501E-04  1.4119E-02  1.4140E-02   86.899
   227   11   1.8898   0.0000   0.0940  0.01567   6.4769E-04  1.2577E-02  1.2593E-02   87.052
   228   11   1.8898   0.0000   0.1097  0.01567   5.2102E-04  1.0845E-02  1.0858E-02   87.250
   229   11   1.8898   0.0000   0.1253  0.01567   3.8996E-04  8.9049E-03  8.9134E-03   87.493
   230   11   1.8898   0.0000   0.1410  0.01567   2.5928E-04  6.6955E-03  6.7006E-03   87.782
   231   11   1.8898   0.0000   0.1567  0.01567   1.3147E-04  4.0220E-03  4.0241E-03   88.128



                                        - - - POWER BUDGET - - -

                                           INPUT POWER   = 9.2404E-03 WATTS
                                           RADIATED POWER= 9.2404E-03 WATTS
                                           STRUCTURE LOSS= 0.0000E+00 WATTS
                                           NETWORK LOSS  =-1.7347E-17 WATTS
                                           EFFICIENCY    = 100.00 PERCENT



                                                - - - RADIATION PATTERNS - - -

  - - ANGLES - -           - POWER GAINS -       - - - POLARIZATION - - -    - - - E(THETA) - - -    - - - E(PHI) - - -
  THETA     PHI        VERT.   HOR.    TOTAL      AXIAL     TILT   SENSE     MAGNITUDE    PHASE      MAGNITUDE    PHASE 
 DEGREES  DEGREES       DB      DB      DB        RATIO     DEG.              VOLTS/M    DEGREES      VOLTS/M    DEGREES
 -180.00     0.00    -999.99 -999.99 -999.99    0.00000     0.00            2.82924E-12  -102.94    0.00000E+00     0.00
 -175.00     0.00     -30.64 -999.99  -30.64    0.00000     0.00  LINEAR    2.18700E-02     0.11    0.00000E+00     0.00
 -170.00     0.00     -23.76 -999.99  -23.76    0.00000     0.00  LINEAR    4.82756E-02   -66.33    0.00000E+00     0.00
 -165.00     0.00     -20.14 -999.99  -20.14    0.00000     0.00  LINEAR    7.32136E-02  -120.60    0.00000E+00     0.00
 -160.00     0.00     -19.32 -999.99  -19.32    0.00000     0.00  LINEAR    8.04951E-02  -170.76    0.00000E+00     0.00
 -155.00     0.00     -21.57 -999.99  -21.57    0.00000     0.00  LINEAR    6.21514E-02   131.53    0.00000E+00     0.00
 -150.00     0.00     -23.20 -999.99  -23.20    0.00000     0.00  LINEAR    5.15091E-02    31.16    0.00000E+00     0.00
 -145.00     0.00     -16.25 -999.99  -16.25    0.00000     0.00  LINEAR    1.14656E-01   -45.33    0.00000E+00     0.00
 -140.00     0.00     -11.31 -999.99  -11.31    0.00000     0.00  LINEAR    2.02495E-01   -85.54    0.00000E+00     0.00
 -135.00     0.00      -8.44 -999.99   -8.44    0.00000     0.00  LINEAR    2.81712E-01  -114.50    0.00000E+00     0.00
 -130.00     0.00      -6.93 -999.99   -6.93    0.00000     0.00  LINEAR    3.35131E-01  -136.62    0.00000E+00     0.00
 -125.00     0.00      -6.38 -999.99   -6.38    0.00000     0.00  LINEAR    3.57037E-01  -152.46    0.00000E+00     0.00
 -120.00     0.00      -6.44 -999.99   -6.44    0.00000     0.00  LINEAR    3.54471E-01  -161.61    0.00000E+00     0.00
 -115.00     0.00      -6.68 -999.99   -6.68    0.00000     0.00  LINEAR    3.45127E-01  -163.89    0.00000E+00     0.00
 -110.00     0.00      -6.59 -999.99   -6.59    0.00000     0.00  LINEAR    3.48445E-01  -160.99    0.00000E+00     0.00
 -105.00     0.00      -6.04 -999.99   -6.04    0.00000     0.00  LINEAR    3.71329E-01  -156.62    0.00000E+00     0.00
 -100.00     0.00      -5.31 -999.99   -5.31    0.00000     0.00  LINEAR    4.03984E-01  -153.45    0.00000E+00     0.00
  -95.00     0.00      -4.75 -999.99   -4.75    0.00000     0.00  LINEAR    4.30993E-01  -151.90    0.00000E+00     0.00
  -90.00     0.00      -4.54 -999.99   -4.54    0.00000     0.00  LINEAR    4.41261E-01  -151.47    0.00000E+00     0.00
  -85.00     0.00      -4.75 -999.99   -4.75    0.00000     0.00  LINEAR    4.30993E-01  -151.90    0.00000E+00     0.00
  -80.00     0.00      -5.31 -999.99   -5.31    0.00000     0.00  LINEAR    4.03984E-01  -153.45    0.00000E+00     0.00
  -75.00     0.00      -6.04 -999.99   -6.04    0.00000     0.00  LINEAR    3.71329E-01  -156.62    0.00000E+00     0.00
  -70.00     0.00      -6.59 -999.99   -6.59    0.00000     0.00  LINEAR    3.48445E-01  -160.99    0.00000E+00     0.00
  -65.00     0.00      -6.68 -999.99   -6.68    0.00000     0.00  LINEAR    3.45127E-01  -163.89    0.00000E+00     0.00
  -60.00     0.00      -6.44 -999.99   -6.44    0.00000     0.00  LINEAR    3.54471E-01  -161.61    0.00000E+00     0.00
  -55.00     0.00      -6.38 -999.99   -6.38    0.00000     0.00  LINEAR    3.57037E-01  -152.46    0.00000E+00     0.00
  -50.00     0.00      -6.93 -999.99   -6.93    0.00000     0.00  LINEAR    3.35131E-01  -136.62    0.00000E+00     0.00
  -45.00     0.00      -8.44 -999.99   -8.44    0.00000     0.00  LINEAR    2.81712E-01  -114.50    0.00000E+00     0.00
  -40.00     0.00     -11.31 -999.99  -11.31    0.00000     0.00  LINEAR    2.02495E-01   -85.54    0.00000E+00     0.00
  -35.00     0.00     -16.25 -999.99  -16.25    0.00000     0.00  LINEAR    1.14656E-01   -45.33    0.00000E+00     0.00
  -30.00     0.00     -23.20 -999.99  -23.20    0.00000     0.00  LINEAR    5.15091E-02    31.16    0.00000E+00     0.00
  -25.00     0.00     -21.57 -999.99  -21.57    0.00000     0.00  LINEAR    6.21514E-02   131.53    0.00000E+00     0.00
  -20.00     0.00     -19.32 -999.99  -19.32    0.00000     0.00  LINEAR    8.04951E-02  -170.76    0.00000E+00     0.00
  -15.00     0.00     -20.14 -999.99  -20.14    0.00000     0.00  LINEAR    7.32136E-02  -120.60    0.00000E+00     0.00
  -10.00     0.00     -23.76 -999.99  -23.76    0.00000     0.00  LINEAR    4.82756E-02   -66.33    0.00000E+00     0.00
   -5.00     0.00     -30.64 -999.99  -30.64    0.00000     0.00  LINEAR    2.18700E-02     0.11    0.00000E+00     0.00
    0.00     0.00    -999.99 -999.99 -999.99    0.00000     0.00            0.00000E+00     0.00    0.00000E+00     0.00
 -180.00     5.00    -999.99 -999.99 -999.99    0.00000     0.00            2.82924E-12  -102.94    0.00000E+00     0.00
 -175.00     5.00     -30.64 -999.99  -30.64    0.00000     0.00  LINEAR    2.18649E-02     0.39    0.00000E+00     0.00
 -170.00     5.00     -23.77 -999.99  -23.77    0.00000     0.00  LINEAR    4.82412E-02   -65.88    0.00000E+00     0.00
 -165.00     5.00     -20.13 -999.99  -20.13    0.00000     0.00  LINEAR    7.32880E-02  -120.01    0.00000E+00     0.00
 -160.00     5.00     -19.27 -999.99  -19.27    0.00000     0.00  LINEAR    8.09352E-02  -169.94    0.00000E+00     0.00
 -155.00     5.00     -21.45 -999.99  -21.45    0.00000     0.00  LINEAR    6.29907E-02   133.04    0.00000E+00     0.00
 -150.00     5.00     -23.31 -999.99  -23.31    0.00000     0.00  LINEAR    5.08716E-02    34.04    0.00000E+00     0.00
 -145.00     5.00     -16.42 -999.99  -16.42    0.00000     0.00  LINEAR    1.12455E-01   -43.90    0.00000E+00     0.00
 -140.00     5.00     -11.40 -999.99  -11.40    0.00000     0.00  LINEAR    2.00232E-01   -84.44    0.00000E+00     0.00
 -135.00     5.00      -8.48 -999.99   -8.48    0.00000     0.00  LINEAR    2.80320E-01  -113.49    0.00000E+00     0.00
 -130.00     5.00      -6.92 -999.99   -6.92    0.00000     0.00  LINEAR    3.35378E-01  -135.69    0.00000E+00     0.00
 -125.00     5.00      -6.33 -999.99   -6.33    0.00000     0.00  LINEAR    3.59283E-01  -151.71    0.00000E+00     0.00
 -120.00     5.00      -6.35 -999.99   -6.35    0.00000     0.00  LINEAR    3.58335E-01  -161.19    0.00000E+00     0.00
 -115.00     5.00      -6.57 -999.99   -6.57    0.00000     0.00  LINEAR    3.49260E-01  -163.97    0.00000E+00     0.00
 -110.00     5.00      -6.53 -999.99   -6.53    0.00000     0.00  LINEAR    3.50926E-01  -161.56    0.00000E+00     0.00
 -105.00     5.00      -6.05 -999.99   -6.05    0.00000     0.00  LINEAR    3.70955E-01  -157.39    0.00000E+00     0.00
 -100.00     5.00      -5.37 -999.99   -5.37    0.00000     0.00  LINEAR    4.00930E-01  -154.20    0.00000E+00     0.00
  -95.00     5.00      -4.84 -999.99   -4.84    0.00000     0.00  LINEAR    4.26215E-01  -152.56    0.00000E+00     0.00
  -90.00     5.00      -4.65 -999.99   -4.65    0.00000     0.00  LINEAR    4.35905E-01  -152.08    0.00000E+00     0.00
  -85.00     5.00      -4.84 -999.99   -4.84    0.00000     0.00  LINEAR    4.26215E-01  -152.56    0.00000E+00     0.00
  -80.00     5.00      -5.37 -999.99   -5.37    0.00000     0.00  LINEAR    4.00930E-01  -154.20    0.00000E+00     0.00
  -75.00     5.00      -6.05 -999.99   -6.05    0.00000     0.00  LINEAR    3.70955E-01  -157.39    0.00000E+00     0.00
  -70.00     5.00      -6.53 -999.99   -6.53    0.00000     0.00  LINEAR    3.50926E-01  -161.56    0.00000E+00     0.00
  -65.00     5.00      -6.57 -999.99   -6.57    0.00000     0.00  LINEAR    3.49260E-01  -163.97    0.00000E+00     0.00
  -60.00     5.00      -6.35 -999.99   -6.35    0.00000     0.00  LINEAR    3.58335E-01  -161.19    0.00000E+00     0.00
  -55.00     5.00      -6.33 -999.99   -6.33    0.00000     0.00  LINEAR    3.59283E-01  -151.71    0.00000E+00     0.00
  -50.00     5.00      -6.92 -999.99   -6.92    0.00000     0.00  LINEAR    3.35378E-01  -135.69    0.00000E+00     0.00
  -45.00     5.00      -8.48 -999.99   -8.48    0.00000     0.00  LINEAR    2.80320E-01  -113.49    0.00000E+00     0.00
  -40.00     5.00     -11.40 -999.99  -11.40    0.00000     0.00  LINEAR    2.00232E-01   -84.44    0.00000E+00     0.00
  -35.00     5.00     -16.42 -999.99  -16.42    0.00000     0.00  LINEAR    1.12455E-01   -43.90    0.00000E+00     0.00
  -30.00     5.00     -23.31 -999.99  -23.31    0.00000     0.00  LINEAR    5.08716E-02    34.04    0.00000E+00     0.00
  -25.00     5.00     -21.45 -999.99  -21.45    0.00000     0.00  LINEAR    6.29907E-02   133.04    0.00000E+00     0.00
  -20.00     5.00     -19.27 -999.99  -19.27    0.00000     0.00  LINEAR    8.09352E-02  -169.94    0.00000E+00     0.00
  -15.00     5.00     -20.13 -999.99  -20.13    0.00000     0.00  LINEAR    7.32880E-02  -120.01    0.00000E+00     0.00
  -10.00     5.00     -23.77 -999.99  -23.77    0.00000     0.00  LINEAR    4.82412E-02   -65.88    0.00000E+00     0.00
   -5.00     5.00     -30.64 -999.99  -30.64    0.00000     0.00  LINEAR    2.18649E-02     0.39    0.00000E+00     0.00
    0.00     5.00    -999.99 -999.99 -999.99    0.00000     0.00            0.00000E+00     0.00    0.00000E+00     0.00
 -180.00    10.00    -999.99 -999.99 -999.99    0.00000     0.00            2.82924E-12  -102.94    0.00000E+00     0.00
 -175.00    10.00     -30.65 -999.99  -30.65    0.00000     0.00  LINEAR    2.18501E-02     1.24    0.00000E+00     0.00
 -170.00    10.00     -23.79 -999.99  -23.79    0.00000     0.00  LINEAR    4.81363E-02   -64.53    0.00000E+00     0.00
 -165.00    10.00     -20.11 -999.99  -20.11    0.00000     0.00  LINEAR    7.34969E-02  -118.25    0.00000E+00     0.00
 -160.00    10.00     -19.14 -999.99  -19.14    0.00000     0.00  LINEAR    8.22274E-02  -167.53    0.00000E+00     0.00
 -155.00    10.00     -21.11 -999.99  -21.11    0.00000     0.00  LINEAR    6.55407E-02   137.41    0.00000E+00     0.00
 -150.00    10.00     -23.56 -999.99  -23.56    0.00000     0.00  LINEAR    4.93791E-02    42.94    0.00000E+00     0.00
 -145.00    10.00     -16.94 -999.99  -16.94    0.00000     0.00  LINEAR    1.05846E-01   -39.48    0.00000E+00     0.00
 -140.00    10.00     -11.71 -999.99  -11.71    0.00000     0.00  LINEAR    1.93217E-01   -81.10    0.00000E+00     0.00
 -135.00    10.00      -8.63 -999.99   -8.63    0.00000     0.00  LINEAR    2.75696E-01  -110.43    0.00000E+00     0.00
 -130.00    10.00      -6.92 -999.99   -6.92    0.00000     0.00  LINEAR    3.35477E-01  -132.88    0.00000E+00     0.00
 -125.00    10.00      -6.18 -999.99   -6.18    0.00000     0.00  LINEAR    3.65317E-01  -149.36    0.00000E+00     0.00
 -120.00    10.00      -6.08 -999.99   -6.08    0.00000     0.00  LINEAR    3.69489E-01  -159.74    0.00000E+00     0.00
 -115.00    10.00      -6.26 -999.99   -6.26    0.00000     0.00  LINEAR    3.62046E-01  -163.90    0.00000E+00     0.00
 -110.00    10.00      -6.31 -999.99   -6.31    0.00000     0.00  LINEAR    3.60065E-01  -162.94    0.00000E+00     0.00
 -105.00    10.00      -6.01 -999.99   -6.01    0.00000     0.00  LINEAR    3.72630E-01  -159.58    0.00000E+00     0.00
 -100.00    10.00      -5.50 -999.99   -5.50    0.00000     0.00  LINEAR    3.95043E-01  -156.48    0.00000E+00     0.00
  -95.00    10.00      -5.07 -999.99   -5.07    0.00000     0.00  LINEAR    4.15256E-01  -154.68    0.00000E+00     0.00
  -90.00    10.00      -4.90 -999.99   -4.90    0.00000     0.00  LINEAR    4.23211E-01  -154.13    0.00000E+00     0.00
  -85.00    10.00      -5.07 -999.99   -5.07    0.00000     0.00  LINEAR    4.15256E-01  -154.68    0.00000E+00     0.00
  -80.00    10.00      -5.50 -999.99   -5.50    0.00000     0.00  LINEAR    3.95043E-01  -156.48    0.00000E+00     0.00
  -75.00    10.00      -6.01 -999.99   -6.01    0.00000     0.00  LINEAR    3.72630E-01  -159.58    0.00000E+00     0.00
  -70.00    10.00      -6.31 -999.99   -6.31    0.00000     0.00  LINEAR    3.60065E-01  -162.94    0.00000E+00     0.00
  -65.00    10.00      -6.26 -999.99   -6.26    0.00000     0.00  LINEAR    3.62046E-01  -163.90    0.00000E+00     0.00
  -60.00    10.00      -6.08 -999.99   -6.08    0.00000     0.00  LINEAR    3.69489E-01  -159.74    0.00000E+00     0.00
  -55.00    10.00      -6.18 -999.99   -6.18    0.00000     0.00  LINEAR    3.65317E-01  -149.36    0.00000E+00     0.00
  -50.00    10.00      -6.92 -999.99   -6.92    0.00000     0.00  LINEAR    3.35477E-01  -132.88    0.00000E+00     0.00
  -45.00    10.00      -8.63 -999.99   -8.63    0.00000     0.00  LINEAR    2.75696E-01  -110.43    0.00000E+00     0.00
  -40.00    10.00     -11.71 -999.99  -11.71    0.00000     0.00  LINEAR    1.93217E-01   -81.10    0.00000E+00     0.00
  -35.00    10.00     -16.94 -999.99  -16.94    0.00000     0.00  LINEAR    1.05846E-01   -39.48    0.00000E+00     0.00
  -30.00    10.00     -23.56 -999.99  -23.56    0.00000     0.00  LINEAR    4.93791E-02    42.94    0.00000E+00     0.00
  -25.00    10.00     -21.11 -999.99  -21.11    0.00000     0.00  LINEAR    6.55407E-02   137.41    0.00000E+00     0.00
  -20.00    10.00     -19.14 -999.99  -19.14    0.00000     0.00  LINEAR    8.22274E-02  -167.53    0.00000E+00     0.00
  -15.00    10.00     -20.11 -999.99  -20.11    0.00000     0.00  LINEAR    7.34969E-02  -118.25    0.00000E+00     0.00
  -10.00    10.00     -23.79 -999.99  -23.79    0.00000     0.00  LINEAR    4.81363E-02   -64.53    0.00000E+00     0.00
   -5.00    10.00     -30.65 -999.99  -30.65    0.00000     0.00  LINEAR    2.18501E-02     1.24    0.00000E+00     0.00
    0.00    10.00    -999.99 -999.99 -999.99    0.00000     0.00            0.00000E+00     0.00    0.00000E+00     0.00
 -180.00    15.00    -999.99 -999.99 -999.99    0.00000     0.00            2.82924E-12  -102.94    0.00000E+00     0.00
 -175.00    15.00     -30.66 -999.99  -30.66    0.00000     0.00  LINEAR    2.18270E-02     2.66    0.00000E+00     0.00
 -170.00    15.00     -23.82 -999.99  -23.82    0.00000     0.00  LINEAR    4.79558E-02   -62.28    0.00000E+00     0.00
 -165.00    15.00     -20.07 -999.99  -20.07    0.00000     0.00  LINEAR    7.37982E-02  -115.33    0.00000E+00     0.00
 -160.00    15.00     -18.92 -999.99  -18.92    0.00000     0.00  LINEAR    8.42843E-02  -163.56    0.00000E+00     0.00
 -155.00    15.00     -20.55 -999.99  -20.55    0.00000     0.00  LINEAR    6.98580E-02   144.25    0.00000E+00     0.00
 -150.00    15.00     -23.74 -999.99  -23.74    0.00000     0.00  LINEAR    4.83827E-02    58.30    0.00000E+00     0.00
 -145.00    15.00     -17.89 -999.99  -17.89    0.00000     0.00  LINEAR    9.49031E-02   -31.50    0.00000E+00     0.00
 -140.00    15.00     -12.29 -999.99  -12.29    0.00000     0.00  LINEAR    1.80827E-01   -75.39    0.00000E+00     0.00
 -135.00    15.00      -8.92 -999.99   -8.92    0.00000     0.00  LINEAR    2.66550E-01  -105.26    0.00000E+00     0.00
 -130.00    15.00      -6.97 -999.99   -6.97    0.00000     0.00  LINEAR    3.33519E-01  -128.07    0.00000E+00     0.00
 -125.00    15.00      -6.00 -999.99   -6.00    0.00000     0.00  LINEAR    3.72934E-01  -145.20    0.00000E+00     0.00
 -120.00    15.00      -5.70 -999.99   -5.70    0.00000     0.00  LINEAR    3.86223E-01  -156.79    0.00000E+00     0.00
 -115.00    15.00      -5.76 -999.99   -5.76    0.00000     0.00  LINEAR    3.83694E-01  -162.87    0.00000E+00     0.00
 -110.00    15.00      -5.85 -999.99   -5.85    0.00000     0.00  LINEAR    3.79467E-01  -164.14    0.00000E+00     0.00
 -105.00    15.00      -5.76 -999.99   -5.76    0.00000     0.00  LINEAR    3.83427E-01  -162.46    0.00000E+00     0.00
 -100.00    15.00      -5.49 -999.99   -5.49    0.00000     0.00  LINEAR    3.95496E-01  -160.07    0.00000E+00     0.00
  -95.00    15.00      -5.22 -999.99   -5.22    0.00000     0.00  LINEAR    4.08093E-01  -158.37    0.00000E+00     0.00
  -90.00    15.00      -5.11 -999.99   -5.11    0.00000     0.00  LINEAR    4.13334E-01  -157.79    0.00000E+00     0.00
  -85.00    15.00      -5.22 -999.99   -5.22    0.00000     0.00  LINEAR    4.08093E-01  -158.37    0.00000E+00     0.00
  -80.00    15.00      -5.49 -999.99   -5.49    0.00000     0.00  LINEAR    3.95496E-01  -160.07    0.00000E+00     0.00
  -75.00    15.00      -5.76 -999.99   -5.76    0.00000     0.00  LINEAR    3.83427E-01  -162.46    0.00000E+00     0.00
  -70.00    15.00      -5.85 -999.99   -5.85    0.00000     0.00  LINEAR    3.79467E-01  -164.14    0.00000E+00     0.00
  -65.00    15.00      -5.76 -999.99   -5.76    0.00000     0.00  LINEAR    3.83694E-01  -162.87    0.00000E+00     0.00
  -60.00    15.00      -5.70 -999.99   -5.70    0.00000     0.00  LINEAR    3.86223E-01  -156.79    0.00000E+00     0.00
  -55.00    15.00      -6.00 -999.99   -6.00    0.00000     0.00  LINEAR    3.72934E-01  -145.20    0.00000E+00     0.00
  -50.00    15.00      -6.97 -999.99   -6.97    0.00000     0.00  LINEAR    3.33519E-01  -128.07    0.00000E+00     0.00
  -45.00    15.00      -8.92 -999.99   -8.92    0.00000     0.00  LINEAR    2.66550E-01  -105.26    0.00000E+00     0.00
  -40.00    15.00     -12.29 -999.99  -12.29    0.00000     0.00  LINEAR    1.80827E-01   -75.39    0.00000E+00     0.00
  -35.00    15.00     -17.89 -999.99  -17.89    0.00000     0.00  LINEAR    9.49031E-02   -31.50    0.00000E+00     0.00
  -30.00    15.00     -23.74 -999.99  -23.74    0.00000     0.00  LINEAR    4.83827E-02    58.30    0.00000E+00     0.00
  -25.00    15.00     -20.55 -999.99  -20.55    0.00000     0.00  LINEAR    6.98580E-02   144.25    0.00000E+00     0.00
  -20.00    15.00     -18.92 -999.99  -18.92    0.00000     0.00  LINEAR    8.42843E-02  -163.56    0.00000E+00     0.00
  -15.00    15.00     -20.07 -999.99  -20.07    0.00000     0.00  LINEAR    7.37982E-02  -115.33    0.00000E+00     0.00
  -10.00    15.00     -23.82 -999.99  -23.82    0.00000     0.00  LINEAR    4.79558E-02   -62.28    0.00000E+00     0.00
   -5.00    15.00     -30.66 -999.99  -30.66    0.00000     0.00  LINEAR    2.18270E-02     2.66    0.00000E+00     0.00
    0.00    15.00    -999.99 -999.99 -999.99    0.00000     0.00            0.00000E+00     0.00    0.00000E+00     0.00
 -180.00    20.00    -999.99 -999.99 -999.99    0.00000     0.00            2.82924E-12  -102.94    0.00000E+00     0.00
 -175.00    20.00     -30.67 -999.99  -30.67    0.00000     0.00  LINEAR    2.17983E-02     4.63    0.00000E+00     0.00
 -170.00    20.00     -23.87 -999.99  -23.87    0.00000     0.00  LINEAR    4.76926E-02   -59.12    0.00000E+00     0.00
 -165.00    20.00     -20.04 -999.99  -20.04    0.00000     0.00  LINEAR    7.41238E-02  -111.25    0.00000E+00     0.00
 -160.00    20.00     -18.65 -999.99  -18.65    0.00000     0.00  LINEAR    8.69541E-02  -158.14    0.00000E+00     0.00
 -155.00    20.00     -19.83 -999.99  -19.83    0.00000     0.00  LINEAR    7.59285E-02   153.05    0.00000E+00     0.00
 -150.00    20.00     -23.43 -999.99  -23.43    0.00000     0.00  LINEAR    5.01332E-02    79.39    0.00000E+00     0.00
 -145.00    20.00     -19.36 -999.99  -19.36    0.00000     0.00  LINEAR    8.01112E-02   -18.60    0.00000E+00     0.00
 -140.00    20.00     -13.23 -999.99  -13.23    0.00000     0.00  LINEAR    1.62223E-01   -66.99    0.00000E+00     0.00
 -135.00    20.00      -9.44 -999.99   -9.44    0.00000     0.00  LINEAR    2.50916E-01   -97.84    0.00000E+00     0.00
 -130.00    20.00      -7.16 -999.99   -7.16    0.00000     0.00  LINEAR    3.26416E-01  -121.14    0.00000E+00     0.00
 -125.00    20.00      -5.88 -999.99   -5.88    0.00000     0.00  LINEAR    3.78255E-01  -138.95    0.00000E+00     0.00
 -120.00    20.00      -5.29 -999.99   -5.29    0.00000     0.00  LINEAR    4.04744E-01  -151.79    0.00000E+00     0.00
 -115.00    20.00      -5.14 -999.99   -5.14    0.00000     0.00  LINEAR    4.12072E-01  -159.86    0.00000E+00     0.00
 -110.00    20.00      -5.16 -999.99   -5.16    0.00000     0.00  LINEAR    4.10733E-01  -163.67    0.00000E+00     0.00
 -105.00    20.00      -5.18 -999.99   -5.18    0.00000     0.00  LINEAR    4.10013E-01  -164.38    0.00000E+00     0.00
 -100.00    20.00      -5.11 -999.99   -5.11    0.00000     0.00  LINEAR    4.13390E-01  -163.57    0.00000E+00     0.00
  -95.00    20.00      -5.00 -999.99   -5.00    0.00000     0.00  LINEAR    4.18413E-01  -162.60    0.00000E+00     0.00
  -90.00    20.00      -4.95 -999.99   -4.95    0.00000     0.00  LINEAR    4.20748E-01  -162.21    0.00000E+00     0.00
  -85.00    20.00      -5.00 -999.99   -5.00    0.00000     0.00  LINEAR    4.18413E-01  -162.60    0.00000E+00     0.00
  -80.00    20.00      -5.11 -999.99   -5.11    0.00000     0.00  LINEAR    4.13390E-01  -163.57    0.00000E+00     0.00
  -75.00    20.00      -5.18 -999.99   -5.18    0.00000     0.00  LINEAR    4.10013E-01  -164.38    0.00000E+00     0.00
  -70.00    20.00      -5.16 -999.99   -5.16    0.00000     0.00  LINEAR    4.10733E-01  -163.67    0.00000E+00     0.00
  -65.00    20.00      -5.14 -999.99   -5.14    0.00000     0.00  LINEAR    4.12072E-01  -159.86    0.00000E+00     0.00
  -60.00    20.00      -5.29 -999.99   -5.29    0.00000     0.00  LINEAR    4.04744E-01  -151.79    0.00000E+00     0.00
  -55.00    20.00      -5.88 -999.99   -5.88    0.00000     0.00  LINEAR    3.78255E-01  -138.95    0.00000E+00     0.00
  -50.00    20.00      -7.16 -999.99   -7.16    0.00000     0.00  LINEAR    3.26416E-01  -121.14    0.00000E+00     0.00
  -45.00    20.00      -9.44 -999.99   -9.44    0.00000     0.00  LINEAR    2.50916E-01   -97.84    0.00000E+00     0.00
  -40.00    20.00     -13.23 -999.99  -13.23    0.00000     0.00  LINEAR    1.62223E-01   -66.99    0.00000E+00     0.00
  -35.00    20.00     -19.36 -999.99  -19.36    0.00000     0.00  LINEAR    8.01112E-02   -18.60    0.00000E+00     0.00
  -30.00    20.00     -23.43 -999.99  -23.43    0.00000     0.00  LINEAR    5.01332E-02    79.39    0.00000E+00     0.00
  -25.00    20.00     -19.83 -999.99  -19.83    0.00000     0.00  LINEAR    7.59285E-02   153.05    0.00000E+00     0.00
  -20.00    20.00     -18.65 -999.99  -18.65    0.00000     0.00  LINEAR    8.69541E-02  -158.14    0.00000E+00     0.00
  -15.00    20.00     -20.04 -999.99  -20.04    0.00000     0.00  LINEAR    7.41238E-02  -111.25    0.00000E+00     0.00
  -10.00    20.00     -23.87 -999.99  -23.87    0.00000     0.00  LINEAR    4.76926E-02   -59.12    0.00000E+00     0.00
   -5.00    20.00     -30.67 -999.99  -30.67    0.00000     0.00  LINEAR    2.17983E-02     4.63    0.00000E+00     0.00
    0.00    20.00    -999.99 -999.99 -999.99    0.00000     0.00            0.00000E+00     0.00    0.00000E+00     0.00
 -180.00    25.00    -999.99 -999.99 -999.99    0.00000     0.00            2.82924E-12  -102.94    0.00000E+00     0.00
 -175.00    25.00     -30.68 -999.99  -30.68    0.00000     0.00  LINEAR    2.17675E-02     7.15    0.00000E+00     0.00
 -170.00    25.00     -23.93 -999.99  -23.93    0.00000     0.00  LINEAR    4.73395E-02   -55.04    0.00000E+00     0.00
 -165.00    25.00     -20.01 -999.99  -20.01    0.00000     0.00  LINEAR    7.43840E-02  -106.02    0.00000E+00     0.00
 -160.00    25.00     -18.35 -999.99  -18.35    0.00000     0.00  LINEAR    9.00154E-02  -151.34    0.00000E+00     0.00
 -155.00    25.00     -18.99 -999.99  -18.99    0.00000     0.00  LINEAR    8.35686E-02   163.32    0.00000E+00     0.00
 -150.00    25.00     -22.35 -999.99  -22.35    0.00000     0.00  LINEAR    5.68140E-02   103.09    0.00000E+00     0.00
 -145.00    25.00     -21.40 -999.99  -21.40    0.00000     0.00  LINEAR    6.33409E-02     2.55    0.00000E+00     0.00
 -140.00    25.00     -14.72 -999.99  -14.72    0.00000     0.00  LINEAR    1.36708E-01   -55.22    0.00000E+00     0.00
[...]
  -70.00   340.00      -5.16 -999.99   -5.16    0.00000     0.00  LINEAR    4.10733E-01  -163.67    0.00000E+00     0.00
  -65.00   340.00      -5.14 -999.99   -5.14    0.00000     0.00  LINEAR    4.12072E-01  -159.86    0.00000E+00     0.00
  -60.00   340.00      -5.29 -999.99   -5.29    0.00000     0.00  LINEAR    4.04744E-01  -151.79    0.00000E+00     0.00
  -55.00   340.00      -5.88 -999.99   -5.88    0.00000     0.00  LINEAR    3.78255E-01  -138.95    0.00000E+00     0.00
  -50.00   340.00      -7.16 -999.99   -7.16    0.00000     0.00  LINEAR    3.26416E-01  -121.14    0.00000E+00     0.00
  -45.00   340.00      -9.44 -999.99   -9.44    0.00000     0.00  LINEAR    2.50916E-01   -97.84    0.00000E+00     0.00
  -40.00   340.00     -13.23 -999.99  -13.23    0.00000     0.00  LINEAR    1.62223E-01   -66.99    0.00000E+00     0.00
  -35.00   340.00     -19.36 -999.99  -19.36    0.00000     0.00  LINEAR    8.01112E-02   -18.60    0.00000E+00     0.00
  -30.00   340.00     -23.43 -999.99  -23.43    0.00000     0.00  LINEAR    5.01332E-02    79.39    0.00000E+00     0.00
  -25.00   340.00     -19.83 -999.99  -19.83    0.00000     0.00  LINEAR    7.59285E-02   153.05    0.00000E+00     0.00
  -20.00   340.00     -18.65 -999.99  -18.65    0.00000     0.00  LINEAR    8.69541E-02  -158.14    0.00000E+00     0.00
  -15.00   340.00     -20.04 -999.99  -20.04    0.00000     0.00  LINEAR    7.41238E-02  -111.25    0.00000E+00     0.00
  -10.00   340.00     -23.87 -999.99  -23.87    0.00000     0.00  LINEAR    4.76926E-02   -59.12    0.00000E+00     0.00
   -5.00   340.00     -30.67 -999.99  -30.67    0.00000     0.00  LINEAR    2.17983E-02     4.63    0.00000E+00     0.00
    0.00   340.00    -999.99 -999.99 -999.99    0.00000     0.00            0.00000E+00     0.00    0.00000E+00     0.00
 -180.00   345.00    -999.99 -999.99 -999.99    0.00000     0.00            2.82924E-12  -102.94    0.00000E+00     0.00
 -175.00   345.00     -30.66 -999.99  -30.66    0.00000     0.00  LINEAR    2.18270E-02     2.66    0.00000E+00     0.00
 -170.00   345.00     -23.82 -999.99  -23.82    0.00000     0.00  LINEAR    4.79558E-02   -62.28    0.00000E+00     0.00
 -165.00   345.00     -20.07 -999.99  -20.07    0.00000     0.00  LINEAR    7.37982E-02  -115.33    0.00000E+00     0.00
 -160.00   345.00     -18.92 -999.99  -18.92    0.00000     0.00  LINEAR    8.42843E-02  -163.56    0.00000E+00     0.00
 -155.00   345.00     -20.55 -999.99  -20.55    0.00000     0.00  LINEAR    6.98580E-02   144.25    0.00000E+00     0.00
 -150.00   345.00     -23.74 -999.99  -23.74    0.00000     0.00  LINEAR    4.83827E-02    58.30    0.00000E+00     0.00
 -145.00   345.00     -17.89 -999.99  -17.89    0.00000     0.00  LINEAR    9.49031E-02   -31.50    0.00000E+00     0.00
 -140.00   345.00     -12.29 -999.99  -12.29    0.00000     0.00  LINEAR    1.80827E-01   -75.39    0.00000E+00     0.00
 -135.00   345.00      -8.92 -999.99   -8.92    0.00000     0.00  LINEAR    2.66550E-01  -105.26    0.00000E+00     0.00
 -130.00   345.00      -6.97 -999.99   -6.97    0.00000     0.00  LINEAR    3.33519E-01  -128.07    0.00000E+00     0.00
 -125.00   345.00      -6.00 -999.99   -6.00    0.00000     0.00  LINEAR    3.72934E-01  -145.20    0.00000E+00     0.00
 -120.00   345.00      -5.70 -999.99   -5.70    0.00000     0.00  LINEAR    3.86223E-01  -156.79    0.00000E+00     0.00
 -115.00   345.00      -5.76 -999.99   -5.76    0.00000     0.00  LINEAR    3.83694E-01  -162.87    0.00000E+00     0.00
 -110.00   345.00      -5.85 -999.99   -5.85    0.00000     0.00  LINEAR    3.79467E-01  -164.14    0.00000E+00     0.00
 -105.00   345.00      -5.76 -999.99   -5.76    0.00000     0.00  LINEAR    3.83427E-01  -162.46    0.00000E+00     0.00
 -100.00   345.00      -5.49 -999.99   -5.49    0.00000     0.00  LINEAR    3.95496E-01  -160.07    0.00000E+00     0.00
  -95.00   345.00      -5.22 -999.99   -5.22    0.00000     0.00  LINEAR    4.08093E-01  -158.37    0.00000E+00     0.00
  -90.00   345.00      -5.11 -999.99   -5.11    0.00000     0.00  LINEAR    4.13334E-01  -157.79    0.00000E+00     0.00
  -85.00   345.00      -5.22 -999.99   -5.22    0.00000     0.00  LINEAR    4.08093E-01  -158.37    0.00000E+00     0.00
  -80.00   345.00      -5.49 -999.99   -5.49    0.00000     0.00  LINEAR    3.95496E-01  -160.07    0.00000E+00     0.00
  -75.00   345.00      -5.76 -999.99   -5.76    0.00000     0.00  LINEAR    3.83427E-01  -162.46    0.00000E+00     0.00
  -70.00   345.00      -5.85 -999.99   -5.85    0.00000     0.00  LINEAR    3.79467E-01  -164.14    0.00000E+00     0.00
  -65.00   345.00      -5.76 -999.99   -5.76    0.00000     0.00  LINEAR    3.83694E-01  -162.87    0.00000E+00     0.00
  -60.00   345.00      -5.70 -999.99   -5.70    0.00000     0.00  LINEAR    3.86223E-01  -156.79    0.00000E+00     0.00
  -55.00   345.00      -6.00 -999.99   -6.00    0.00000     0.00  LINEAR    3.72934E-01  -145.20    0.00000E+00     0.00
  -50.00   345.00      -6.97 -999.99   -6.97    0.00000     0.00  LINEAR    3.33519E-01  -128.07    0.00000E+00     0.00
  -45.00   345.00      -8.92 -999.99   -8.92    0.00000     0.00  LINEAR    2.66550E-01  -105.26    0.00000E+00     0.00
  -40.00   345.00     -12.29 -999.99  -12.29    0.00000     0.00  LINEAR    1.80827E-01   -75.39    0.00000E+00     0.00
  -35.00   345.00     -17.89 -999.99  -17.89    0.00000     0.00  LINEAR    9.49031E-02   -31.50    0.00000E+00     0.00
  -30.00   345.00     -23.74 -999.99  -23.74    0.00000     0.00  LINEAR    4.83827E-02    58.30    0.00000E+00     0.00
  -25.00   345.00     -20.55 -999.99  -20.55    0.00000     0.00  LINEAR    6.98580E-02   144.25    0.00000E+00     0.00
  -20.00   345.00     -18.92 -999.99  -18.92    0.00000     0.00  LINEAR    8.42843E-02  -163.56    0.00000E+00     0.00
  -15.00   345.00     -20.07 -999.99  -20.07    0.00000     0.00  LINEAR    7.37982E-02  -115.33    0.00000E+00     0.00
  -10.00   345.00     -23.82 -999.99  -23.82    0.00000     0.00  LINEAR    4.79558E-02   -62.28    0.00000E+00     0.00
   -5.00   345.00     -30.66 -999.99  -30.66    0.00000     0.00  LINEAR    2.18270E-02     2.66    0.00000E+00     0.00
    0.00   345.00    -999.99 -999.99 -999.99    0.00000     0.00            0.00000E+00     0.00    0.00000E+00     0.00
 -180.00   350.00    -999.99 -999.99 -999.99    0.00000     0.00            2.82924E-12  -102.94    0.00000E+00     0.00
 -175.00   350.00     -30.65 -999.99  -30.65    0.00000     0.00  LINEAR    2.18501E-02     1.24    0.00000E+00     0.00
 -170.00   350.00     -23.79 -999.99  -23.79    0.00000     0.00  LINEAR    4.81363E-02   -64.53    0.00000E+00     0.00
 -165.00   350.00     -20.11 -999.99  -20.11    0.00000     0.00  LINEAR    7.34969E-02  -118.25    0.00000E+00     0.00
 -160.00   350.00     -19.14 -999.99  -19.14    0.00000     0.00  LINEAR    8.22274E-02  -167.53    0.00000E+00     0.00
 -155.00   350.00     -21.11 -999.99  -21.11    0.00000     0.00  LINEAR    6.55407E-02   137.41    0.00000E+00     0.00
 -150.00   350.00     -23.56 -999.99  -23.56    0.00000     0.00  LINEAR    4.93791E-02    42.94    0.00000E+00     0.00
 -145.00   350.00     -16.94 -999.99  -16.94    0.00000     0.00  LINEAR    1.05846E-01   -39.48    0.00000E+00     0.00
 -140.00   350.00     -11.71 -999.99  -11.71    0.00000     0.00  LINEAR    1.93217E-01   -81.10    0.00000E+00     0.00
 -135.00   350.00      -8.63 -999.99   -8.63    0.00000     0.00  LINEAR    2.75696E-01  -110.43    0.00000E+00     0.00
 -130.00   350.00      -6.92 -999.99   -6.92    0.00000     0.00  LINEAR    3.35477E-01  -132.88    0.00000E+00     0.00
 -125.00   350.00      -6.18 -999.99   -6.18    0.00000     0.00  LINEAR    3.65317E-01  -149.36    0.00000E+00     0.00
 -120.00   350.00      -6.08 -999.99   -6.08    0.00000     0.00  LINEAR    3.69489E-01  -159.74    0.00000E+00     0.00
 -115.00   350.00      -6.26 -999.99   -6.26    0.00000     0.00  LINEAR    3.62046E-01  -163.90    0.00000E+00     0.00
 -110.00   350.00      -6.31 -999.99   -6.31    0.00000     0.00  LINEAR    3.60065E-01  -162.94    0.00000E+00     0.00
 -105.00   350.00      -6.01 -999.99   -6.01    0.00000     0.00  LINEAR    3.72630E-01  -159.58    0.00000E+00     0.00
 -100.00   350.00      -5.50 -999.99   -5.50    0.00000     0.00  LINEAR    3.95043E-01  -156.48    0.00000E+00     0.00
  -95.00   350.00      -5.07 -999.99   -5.07    0.00000     0.00  LINEAR    4.15256E-01  -154.68    0.00000E+00     0.00
  -90.00   350.00      -4.90 -999.99   -4.90    0.00000     0.00  LINEAR    4.23211E-01  -154.13    0.00000E+00     0.00
  -85.00   350.00      -5.07 -999.99   -5.07    0.00000     0.00  LINEAR    4.15256E-01  -154.68    0.00000E+00     0.00
  -80.00   350.00      -5.50 -999.99   -5.50    0.00000     0.00  LINEAR    3.95043E-01  -156.48    0.00000E+00     0.00
  -75.00   350.00      -6.01 -999.99   -6.01    0.00000     0.00  LINEAR    3.72630E-01  -159.58    0.00000E+00     0.00
  -70.00   350.00      -6.31 -999.99   -6.31    0.00000     0.00  LINEAR    3.60065E-01  -162.94    0.00000E+00     0.00
  -65.00   350.00      -6.26 -999.99   -6.26    0.00000     0.00  LINEAR    3.62046E-01  -163.90    0.00000E+00     0.00
  -60.00   350.00      -6.08 -999.99   -6.08    0.00000     0.00  LINEAR    3.69489E-01  -159.74    0.00000E+00     0.00
  -55.00   350.00      -6.18 -999.99   -6.18    0.00000     0.00  LINEAR    3.65317E-01  -149.36    0.00000E+00     0.00
  -50.00   350.00      -6.92 -999.99   -6.92    0.00000     0.00  LINEAR    3.35477E-01  -132.88    0.00000E+00     0.00
  -45.00   350.00      -8.63 -999.99   -8.63    0.00000     0.00  LINEAR    2.75696E-01  -110.43    0.00000E+00     0.00
  -40.00   350.00     -11.71 -999.99  -11.71    0.00000     0.00  LINEAR    1.93217E-01   -81.10    0.00000E+00     0.00
  -35.00   350.00     -16.94 -999.99  -16.94    0.00000     0.00  LINEAR    1.05846E-01   -39.48    0.00000E+00     0.00
  -30.00   350.00     -23.56 -999.99  -23.56    0.00000     0.00  LINEAR    4.93791E-02    42.94    0.00000E+00     0.00
  -25.00   350.00     -21.11 -999.99  -21.11    0.00000     0.00  LINEAR    6.55407E-02   137.41    0.00000E+00     0.00
  -20.00   350.00     -19.14 -999.99  -19.14    0.00000     0.00  LINEAR    8.22274E-02  -167.53    0.00000E+00     0.00
  -15.00   350.00     -20.11 -999.99  -20.11    0.00000     0.00  LINEAR    7.34969E-02  -118.25    0.00000E+00     0.00
  -10.00   350.00     -23.79 -999.99  -23.79    0.00000     0.00  LINEAR    4.81363E-02   -64.53    0.00000E+00     0.00
   -5.00   350.00     -30.65 -999.99  -30.65    0.00000     0.00  LINEAR    2.18501E-02     1.24    0.00000E+00     0.00
    0.00   350.00    -999.99 -999.99 -999.99    0.00000     0.00            0.00000E+00     0.00    0.00000E+00     0.00
 -180.00   355.00    -999.99 -999.99 -999.99    0.00000     0.00            2.82924E-12  -102.94    0.00000E+00     0.00
 -175.00   355.00     -30.64 -999.99  -30.64    0.00000     0.00  LINEAR    2.18649E-02     0.39    0.00000E+00     0.00
 -170.00   355.00     -23.77 -999.99  -23.77    0.00000     0.00  LINEAR    4.82412E-02   -65.88    0.00000E+00     0.00
 -165.00   355.00     -20.13 -999.99  -20.13    0.00000     0.00  LINEAR    7.32880E-02  -120.01    0.00000E+00     0.00
 -160.00   355.00     -19.27 -999.99  -19.27    0.00000     0.00  LINEAR    8.09352E-02  -169.94    0.00000E+00     0.00
 -155.00   355.00     -21.45 -999.99  -21.45    0.00000     0.00  LINEAR    6.29907E-02   133.04    0.00000E+00     0.00
 -150.00   355.00     -23.31 -999.99  -23.31    0.00000     0.00  LINEAR    5.08716E-02    34.04    0.00000E+00     0.00
 -145.00   355.00     -16.42 -999.99  -16.42    0.00000     0.00  LINEAR    1.12455E-01   -43.90    0.00000E+00     0.00
 -140.00   355.00     -11.40 -999.99  -11.40    0.00000     0.00  LINEAR    2.00232E-01   -84.44    0.00000E+00     0.00
 -135.00   355.00      -8.48 -999.99   -8.48    0.00000     0.00  LINEAR    2.80320E-01  -113.49    0.00000E+00     0.00
 -130.00   355.00      -6.92 -999.99   -6.92    0.00000     0.00  LINEAR    3.35378E-01  -135.69    0.00000E+00     0.00
 -125.00   355.00      -6.33 -999.99   -6.33    0.00000     0.00  LINEAR    3.59283E-01  -151.71    0.00000E+00     0.00
 -120.00   355.00      -6.35 -999.99   -6.35    0.00000     0.00  LINEAR    3.58335E-01  -161.19    0.00000E+00     0.00
 -115.00   355.00      -6.57 -999.99   -6.57    0.00000     0.00  LINEAR    3.49260E-01  -163.97    0.00000E+00     0.00
 -110.00   355.00      -6.53 -999.99   -6.53    0.00000     0.00  LINEAR    3.50926E-01  -161.56    0.00000E+00     0.00
 -105.00   355.00      -6.05 -999.99   -6.05    0.00000     0.00  LINEAR    3.70955E-01  -157.39    0.00000E+00     0.00
 -100.00   355.00      -5.37 -999.99   -5.37    0.00000     0.00  LINEAR    4.00930E-01  -154.20    0.00000E+00     0.00
  -95.00   355.00      -4.84 -999.99   -4.84    0.00000     0.00  LINEAR    4.26215E-01  -152.56    0.00000E+00     0.00
  -90.00   355.00      -4.65 -999.99   -4.65    0.00000     0.00  LINEAR    4.35905E-01  -152.08    0.00000E+00     0.00
  -85.00   355.00      -4.84 -999.99   -4.84    0.00000     0.00  LINEAR    4.26215E-01  -152.56    0.00000E+00     0.00
  -80.00   355.00      -5.37 -999.99   -5.37    0.00000     0.00  LINEAR    4.00930E-01  -154.20    0.00000E+00     0.00
  -75.00   355.00      -6.05 -999.99   -6.05    0.00000     0.00  LINEAR    3.70955E-01  -157.39    0.00000E+00     0.00
  -70.00   355.00      -6.53 -999.99   -6.53    0.00000     0.00  LINEAR    3.50926E-01  -161.56    0.00000E+00     0.00
  -65.00   355.00      -6.57 -999.99   -6.57    0.00000     0.00  LINEAR    3.49260E-01  -163.97    0.00000E+00     0.00
  -60.00   355.00      -6.35 -999.99   -6.35    0.00000     0.00  LINEAR    3.58335E-01  -161.19    0.00000E+00     0.00
  -55.00   355.00      -6.33 -999.99   -6.33    0.00000     0.00  LINEAR    3.59283E-01  -151.71    0.00000E+00     0.00
  -50.00   355.00      -6.92 -999.99   -6.92    0.00000     0.00  LINEAR    3.35378E-01  -135.69    0.00000E+00     0.00
  -45.00   355.00      -8.48 -999.99   -8.48    0.00000     0.00  LINEAR    2.80320E-01  -113.49    0.00000E+00     0.00
  -40.00   355.00     -11.40 -999.99  -11.40    0.00000     0.00  LINEAR    2.00232E-01   -84.44    0.00000E+00     0.00
  -35.00   355.00     -16.42 -999.99  -16.42    0.00000     0.00  LINEAR    1.12455E-01   -43.90    0.00000E+00     0.00
  -30.00   355.00     -23.31 -999.99  -23.31    0.00000     0.00  LINEAR    5.08716E-02    34.04    0.00000E+00     0.00
  -25.00   355.00     -21.45 -999.99  -21.45    0.00000     0.00  LINEAR    6.29907E-02   133.04    0.00000E+00     0.00
  -20.00   355.00     -19.27 -999.99  -19.27    0.00000     0.00  LINEAR    8.09352E-02  -169.94    0.00000E+00     0.00
  -15.00   355.00     -20.13 -999.99  -20.13    0.00000     0.00  LINEAR    7.32880E-02  -120.01    0.00000E+00     0.00
  -10.00   355.00     -23.77 -999.99  -23.77    0.00000     0.00  LINEAR    4.82412E-02   -65.88    0.00000E+00     0.00
   -5.00   355.00     -30.64 -999.99  -30.64    0.00000     0.00  LINEAR    2.18649E-02     0.39    0.00000E+00     0.00
    0.00   355.00    -999.99 -999.99 -999.99    0.00000     0.00            0.00000E+00     0.00    0.00000E+00     0.00
 -180.00   360.00    -999.99 -999.99 -999.99    0.00000     0.00            2.82924E-12  -102.94    0.00000E+00     0.00
 -175.00   360.00     -30.64 -999.99  -30.64    0.00000     0.00  LINEAR    2.18700E-02     0.11    0.00000E+00     0.00
 -170.00   360.00     -23.76 -999.99  -23.76    0.00000     0.00  LINEAR    4.82756E-02   -66.33    0.00000E+00     0.00
 -165.00   360.00     -20.14 -999.99  -20.14    0.00000     0.00  LINEAR    7.32136E-02  -120.60    0.00000E+00     0.00
 -160.00   360.00     -19.32 -999.99  -19.32    0.00000     0.00  LINEAR    8.04951E-02  -170.76    0.00000E+00     0.00
 -155.00   360.00     -21.57 -999.99  -21.57    0.00000     0.00  LINEAR    6.21514E-02   131.53    0.00000E+00     0.00
 -150.00   360.00     -23.20 -999.99  -23.20    0.00000     0.00  LINEAR    5.15091E-02    31.16    0.00000E+00     0.00
 -145.00   360.00     -16.25 -999.99  -16.25    0.00000     0.00  LINEAR    1.14656E-01   -45.33    0.00000E+00     0.00
 -140.00   360.00     -11.31 -999.99  -11.31    0.00000     0.00  LINEAR    2.02495E-01   -85.54    0.00000E+00     0.00
 -135.00   360.00      -8.44 -999.99   -8.44    0.00000     0.00  LINEAR    2.81712E-01  -114.50    0.00000E+00     0.00
 -130.00   360.00      -6.93 -999.99   -6.93    0.00000     0.00  LINEAR    3.35131E-01  -136.62    0.00000E+00     0.00
 -125.00   360.00      -6.38 -999.99   -6.38    0.00000     0.00  LINEAR    3.57037E-01  -152.46    0.00000E+00     0.00
 -120.00   360.00      -6.44 -999.99   -6.44    0.00000     0.00  LINEAR    3.54471E-01  -161.61    0.00000E+00     0.00
 -115.00   360.00      -6.68 -999.99   -6.68    0.00000     0.00  LINEAR    3.45127E-01  -163.89    0.00000E+00     0.00
 -110.00   360.00      -6.59 -999.99   -6.59    0.00000     0.00  LINEAR    3.48445E-01  -160.99    0.00000E+00     0.00
 -105.00   360.00      -6.04 -999.99   -6.04    0.00000     0.00  LINEAR    3.71329E-01  -156.62    0.00000E+00     0.00
 -100.00   360.00      -5.31 -999.99   -5.31    0.00000     0.00  LINEAR    4.03984E-01  -153.45    0.00000E+00     0.00
  -95.00   360.00      -4.75 -999.99   -4.75    0.00000     0.00  LINEAR    4.30993E-01  -151.90    0.00000E+00     0.00
  -90.00   360.00      -4.54 -999.99   -4.54    0.00000     0.00  LINEAR    4.41261E-01  -151.47    0.00000E+00     0.00
  -85.00   360.00      -4.75 -999.99   -4.75    0.00000     0.00  LINEAR    4.30993E-01  -151.90    0.00000E+00     0.00
  -80.00   360.00      -5.31 -999.99   -5.31    0.00000     0.00  LINEAR    4.03984E-01  -153.45    0.00000E+00     0.00
  -75.00   360.00      -6.04 -999.99   -6.04    0.00000     0.00  LINEAR    3.71329E-01  -156.62    0.00000E+00     0.00
  -70.00   360.00      -6.59 -999.99   -6.59    0.00000     0.00  LINEAR    3.48445E-01  -160.99    0.00000E+00     0.00
  -65.00   360.00      -6.68 -999.99   -6.68    0.00000     0.00  LINEAR    3.45127E-01  -163.89    0.00000E+00     0.00
  -60.00   360.00      -6.44 -999.99   -6.44    0.00000     0.00  LINEAR    3.54471E-01  -161.61    0.00000E+00     0.00
  -55.00   360.00      -6.38 -999.99   -6.38    0.00000     0.00  LINEAR    3.57037E-01  -152.46    0.00000E+00     0.00
  -50.00   360.00      -6.93 -999.99   -6.93    0.00000     0.00  LINEAR    3.35131E-01  -136.62    0.00000E+00     0.00
  -45.00   360.00      -8.44 -999.99   -8.44    0.00000     0.00  LINEAR    2.81712E-01  -114.50    0.00000E+00     0.00
  -40.00   360.00     -11.31 -999.99  -11.31    0.00000     0.00  LINEAR    2.02495E-01   -85.54    0.00000E+00     0.00
  -35.00   360.00     -16.25 -999.99  -16.25    0.00000     0.00  LINEAR    1.14656E-01   -45.33    0.00000E+00     0.00
  -30.00   360.00     -23.20 -999.99  -23.20    0.00000     0.00  LINEAR    5.15091E-02    31.16    0.00000E+00     0.00
  -25.00   360.00     -21.57 -999.99  -21.57    0.00000     0.00  LINEAR    6.21514E-02   131.53    0.00000E+00     0.00
  -20.00   360.00     -19.32 -999.99  -19.32    0.00000     0.00  LINEAR    8.04951E-02  -170.76    0.00000E+00     0.00
  -15.00   360.00     -20.14 -999.99  -20.14    0.00000     0.00  LINEAR    7.32136E-02  -120.60    0.00000E+00     0.00
  -10.00   360.00     -23.76 -999.99  -23.76    0.00000     0.00  LINEAR    4.82756E-02   -66.33    0.00000E+00     0.00
   -5.00   360.00     -30.64 -999.99  -30.64    0.00000     0.00  LINEAR    2.18700E-02     0.11    0.00000E+00     0.00
    0.00   360.00    -999.99 -999.99 -999.99    0.00000     0.00            0.00000E+00     0.00    0.00000E+00     0.00


   AVERAGE POWER GAIN= 1.00247E+00       SOLID ANGLE USED IN AVERAGING=( 4.0000)*PI STERADIANS.








 ***** DATA CARD NO. 16   EN   0    37    73  1003 -1.80000E+02  0.00000E+00  5.00000E+00  5.00000E+00  0.00000E+00  0.00000E+00

 RUN TIME =     0.266
